
simpleFoam has been superseded and replaced by the more general
incompressibleFluid solver module executed by the foamRun application:

    foamRun -solver incompressibleFluid

/*---------------------------------------------------------------------------*\
  =========                 |
  \\      /  F ield         | OpenFOAM: The Open Source CFD Toolbox
   \\    /   O peration     | Website:  https://openfoam.org
    \\  /    A nd           | Version:  11
     \\/     M anipulation  |
\*---------------------------------------------------------------------------*/
Build  : 11-d5b4d966c3c5
Exec   : foamRun -solver incompressibleFluid
Date   : Dec 20 2023
Time   : 15:48:19
Host   : "e68674dedd94"
PID    : 26972
I/O    : uncollated
Case   : /home/worker/workspace/demo/1_bc_ode/case/cylinder-ode
nProcs : 1
sigFpe : Enabling floating point exception trapping (FOAM_SIGFPE).
fileModificationChecking : Monitoring run-time modified files using timeStampMaster (fileModificationSkew 10)
allowSystemOperations : Allowing user-supplied system call operations

// * * * * * * * * * * * * * * * * * * * * * * * * * * * * * * * * * * * * * //
Create time

Create mesh for time = 0

Selecting solver incompressibleFluid
Selecting ODE solver RKF45
Selecting viscosity model constant
Selecting turbulence model type laminar
Selecting laminar stress model Stokes
No MRF models present

Courant Number mean: 0.000131446 max: 0.00995737

PIMPLE: No convergence criteria found


PIMPLE: Operating solver in transient mode with 1 outer corrector
PIMPLE: Operating solver in PISO mode



Starting time loop

Courant Number mean: 0.000131446 max: 0.00995737
Time = 0.001s

smoothSolver:  Solving for Ux, Initial residual = 1, Final residual = 2.13714e-06, No Iterations 1
smoothSolver:  Solving for Uy, Initial residual = 1, Final residual = 2.57559e-06, No Iterations 1
Solving ODE 
startValue 1(1)
startTime 0
endTime 0.001
nSteps = 100
tolerance = 0.0001
solution = 0.99005                 0.99005                       1
GAMG:  Solving for p, Initial residual = 1, Final residual = 0.0617626, No Iterations 4
Solving ODE 
startValue 1(0.99005)
startTime 0
endTime 0.001
nSteps = 100
tolerance = 0.0001
solution = 0.980199                 0.99005                       1
GAMG:  Solving for p, Initial residual = 0.012902, Final residual = 0.000970642, No Iterations 2
Solving ODE 
startValue 1(0.980199)
startTime 0
endTime 0.001
nSteps = 100
tolerance = 0.0001
solution = 0.970446                 0.99005                       1
GAMG:  Solving for p, Initial residual = 0.00304155, Final residual = 0.000269192, No Iterations 2
Solving ODE 
startValue 1(0.970446)
startTime 0
endTime 0.001
nSteps = 100
tolerance = 0.0001
solution = 0.960789                 0.99005                       1
GAMG:  Solving for p, Initial residual = 0.00105575, Final residual = 8.28563e-05, No Iterations 2
time step continuity errors : sum local = 3.27436e-06, global = -2.59201e-07
Solving ODE 
startValue 1(0.960789)
startTime 0
endTime 0.001
nSteps = 100
tolerance = 0.0001
solution = 0.951229                 0.99005                       1
GAMG:  Solving for p, Initial residual = 0.000335779, Final residual = 2.72928e-05, No Iterations 2
Solving ODE 
startValue 1(0.951229)
startTime 0
endTime 0.001
nSteps = 100
tolerance = 0.0001
solution = 0.941765                 0.99005                       1
GAMG:  Solving for p, Initial residual = 0.000123342, Final residual = 9.81269e-06, No Iterations 2
Solving ODE 
startValue 1(0.941765)
startTime 0
endTime 0.001
nSteps = 100
tolerance = 0.0001
solution = 0.932394                 0.99005                       1
GAMG:  Solving for p, Initial residual = 4.48496e-05, Final residual = 3.53531e-06, No Iterations 2
Solving ODE 
startValue 1(0.932394)
startTime 0
endTime 0.001
nSteps = 100
tolerance = 0.0001
solution = 0.923116                 0.99005                       1
GAMG:  Solving for p, Initial residual = 1.77834e-05, Final residual = 5.34118e-07, No Iterations 3
time step continuity errors : sum local = 2.12623e-08, global = -4.71534e-09, cumulative = -4.71534e-09
ExecutionTime = 0.073567 s  ClockTime = 0 s

Courant Number mean: 0.0188565 max: 0.0488782
Time = 0.002s

smoothSolver:  Solving for Ux, Initial residual = 0.882377, Final residual = 6.56219e-07, No Iterations 3
smoothSolver:  Solving for Uy, Initial residual = 0.333035, Final residual = 3.40795e-07, No Iterations 3
Solving ODE 
startValue 1(0.923116)
startTime 0.001
endTime 0.002
nSteps = 100
tolerance = 0.0001
solution = 0.913931                0.980199                       2
GAMG:  Solving for p, Initial residual = 0.00677499, Final residual = 0.000415953, No Iterations 4
Solving ODE 
startValue 1(0.913931)
startTime 0.001
endTime 0.002
nSteps = 100
tolerance = 0.0001
solution = 0.904837                0.980199                       2
GAMG:  Solving for p, Initial residual = 0.215626, Final residual = 0.0162217, No Iterations 2
Solving ODE 
startValue 1(0.904837)
startTime 0.001
endTime 0.002
nSteps = 100
tolerance = 0.0001
solution = 0.895834                0.980199                       2
GAMG:  Solving for p, Initial residual = 0.089923, Final residual = 0.00795278, No Iterations 2
Solving ODE 
startValue 1(0.895834)
startTime 0.001
endTime 0.002
nSteps = 100
tolerance = 0.0001
solution = 0.88692                0.980199                       2
GAMG:  Solving for p, Initial residual = 0.0964002, Final residual = 0.0075065, No Iterations 2
time step continuity errors : sum local = 3.24838e-06, global = 2.73001e-07
Solving ODE 
startValue 1(0.88692)
startTime 0.001
endTime 0.002
nSteps = 100
tolerance = 0.0001
solution = 0.878095                0.980199                       2
GAMG:  Solving for p, Initial residual = 0.083676, Final residual = 0.0054948, No Iterations 2
Solving ODE 
startValue 1(0.878095)
startTime 0.001
endTime 0.002
nSteps = 100
tolerance = 0.0001
solution = 0.869358                0.980199                       2
GAMG:  Solving for p, Initial residual = 0.0318349, Final residual = 0.00250318, No Iterations 2
Solving ODE 
startValue 1(0.869358)
startTime 0.001
endTime 0.002
nSteps = 100
tolerance = 0.0001
solution = 0.860708                0.980199                       2
GAMG:  Solving for p, Initial residual = 0.0134668, Final residual = 0.000979226, No Iterations 2
Solving ODE 
startValue 1(0.860708)
startTime 0.001
endTime 0.002
nSteps = 100
tolerance = 0.0001
solution = 0.852144                0.980199                       2
GAMG:  Solving for p, Initial residual = 0.0056323, Final residual = 5.95863e-07, No Iterations 10
time step continuity errors : sum local = 7.34974e-11, global = 1.81454e-11, cumulative = -4.69719e-09
ExecutionTime = 0.079185 s  ClockTime = 0 s

Courant Number mean: 0.018857 max: 0.0488733
Time = 0.003s

smoothSolver:  Solving for Ux, Initial residual = 0.00657063, Final residual = 5.67264e-08, No Iterations 2
smoothSolver:  Solving for Uy, Initial residual = 0.000572342, Final residual = 5.66491e-06, No Iterations 1
Solving ODE 
startValue 1(0.852144)
startTime 0.002
endTime 0.003
nSteps = 100
tolerance = 0.0001
solution = 0.843665                0.970446                       3
GAMG:  Solving for p, Initial residual = 0.14332, Final residual = 0.00896217, No Iterations 1
Solving ODE 
startValue 1(0.843665)
startTime 0.002
endTime 0.003
nSteps = 100
tolerance = 0.0001
solution = 0.83527                0.970446                       3
GAMG:  Solving for p, Initial residual = 0.0115064, Final residual = 0.000530528, No Iterations 2
Solving ODE 
startValue 1(0.83527)
startTime 0.002
endTime 0.003
nSteps = 100
tolerance = 0.0001
solution = 0.826959                0.970446                       3
GAMG:  Solving for p, Initial residual = 0.00161816, Final residual = 0.000112768, No Iterations 2
Solving ODE 
startValue 1(0.826959)
startTime 0.002
endTime 0.003
nSteps = 100
tolerance = 0.0001
solution = 0.818731                0.970446                       3
GAMG:  Solving for p, Initial residual = 0.00104503, Final residual = 0.000104063, No Iterations 1
time step continuity errors : sum local = 9.37079e-09, global = 1.04002e-09
Solving ODE 
startValue 1(0.818731)
startTime 0.002
endTime 0.003
nSteps = 100
tolerance = 0.0001
solution = 0.810584                0.970446                       3
GAMG:  Solving for p, Initial residual = 0.00160158, Final residual = 0.000128007, No Iterations 1
Solving ODE 
startValue 1(0.810584)
startTime 0.002
endTime 0.003
nSteps = 100
tolerance = 0.0001
solution = 0.802519                0.970446                       3
GAMG:  Solving for p, Initial residual = 0.000911673, Final residual = 7.79877e-05, No Iterations 1
Solving ODE 
startValue 1(0.802519)
startTime 0.002
endTime 0.003
nSteps = 100
tolerance = 0.0001
solution = 0.794534                0.970446                       3
GAMG:  Solving for p, Initial residual = 0.000847827, Final residual = 5.96709e-05, No Iterations 1
Solving ODE 
startValue 1(0.794534)
startTime 0.002
endTime 0.003
nSteps = 100
tolerance = 0.0001
solution = 0.786628                0.970446                       3
GAMG:  Solving for p, Initial residual = 0.000819514, Final residual = 4.6292e-07, No Iterations 7
time step continuity errors : sum local = 4.1544e-11, global = 1.32584e-12, cumulative = -4.69586e-09
ExecutionTime = 0.083518 s  ClockTime = 0 s

Courant Number mean: 0.0188571 max: 0.04886
Time = 0.004s

smoothSolver:  Solving for Ux, Initial residual = 0.00485482, Final residual = 4.40062e-08, No Iterations 2
smoothSolver:  Solving for Uy, Initial residual = 0.000455231, Final residual = 4.82916e-06, No Iterations 1
Solving ODE 
startValue 1(0.786628)
startTime 0.003
endTime 0.004
nSteps = 100
tolerance = 0.0001
solution = 0.778801                0.960789                       4
GAMG:  Solving for p, Initial residual = 0.120112, Final residual = 0.00725341, No Iterations 1
Solving ODE 
startValue 1(0.778801)
startTime 0.003
endTime 0.004
nSteps = 100
tolerance = 0.0001
solution = 0.771052                0.960789                       4
GAMG:  Solving for p, Initial residual = 0.00905129, Final residual = 0.000446615, No Iterations 2
Solving ODE 
startValue 1(0.771052)
startTime 0.003
endTime 0.004
nSteps = 100
tolerance = 0.0001
solution = 0.763379                0.960789                       4
GAMG:  Solving for p, Initial residual = 0.00144645, Final residual = 7.83018e-05, No Iterations 2
Solving ODE 
startValue 1(0.763379)
startTime 0.003
endTime 0.004
nSteps = 100
tolerance = 0.0001
solution = 0.755784                0.960789                       4
GAMG:  Solving for p, Initial residual = 0.00102118, Final residual = 5.68142e-05, No Iterations 1
time step continuity errors : sum local = 4.04098e-09, global = 9.71727e-11
Solving ODE 
startValue 1(0.755784)
startTime 0.003
endTime 0.004
nSteps = 100
tolerance = 0.0001
solution = 0.748264                0.960789                       4
GAMG:  Solving for p, Initial residual = 0.00156187, Final residual = 8.04446e-05, No Iterations 1
Solving ODE 
startValue 1(0.748264)
startTime 0.003
endTime 0.004
nSteps = 100
tolerance = 0.0001
solution = 0.740818                0.960789                       4
GAMG:  Solving for p, Initial residual = 0.000980176, Final residual = 3.91044e-05, No Iterations 1
Solving ODE 
startValue 1(0.740818)
startTime 0.003
endTime 0.004
nSteps = 100
tolerance = 0.0001
solution = 0.733447                0.960789                       4
GAMG:  Solving for p, Initial residual = 0.000930005, Final residual = 2.67737e-05, No Iterations 1
Solving ODE 
startValue 1(0.733447)
startTime 0.003
endTime 0.004
nSteps = 100
tolerance = 0.0001
solution = 0.726149                0.960789                       4
GAMG:  Solving for p, Initial residual = 0.000908606, Final residual = 7.95324e-07, No Iterations 5
time step continuity errors : sum local = 5.65618e-11, global = 5.54402e-12, cumulative = -4.69032e-09
ExecutionTime = 0.087561 s  ClockTime = 0 s

Courant Number mean: 0.0188571 max: 0.0488419
Time = 0.005s

smoothSolver:  Solving for Ux, Initial residual = 0.00372019, Final residual = 3.58492e-08, No Iterations 2
smoothSolver:  Solving for Uy, Initial residual = 0.000419312, Final residual = 4.60963e-06, No Iterations 1
Solving ODE 
startValue 1(0.726149)
startTime 0.004
endTime 0.005
nSteps = 100
tolerance = 0.0001
solution = 0.718924                0.951229                       5
GAMG:  Solving for p, Initial residual = 0.100592, Final residual = 0.00602344, No Iterations 1
Solving ODE 
startValue 1(0.718924)
startTime 0.004
endTime 0.005
nSteps = 100
tolerance = 0.0001
solution = 0.71177                0.951229                       5
GAMG:  Solving for p, Initial residual = 0.00754897, Final residual = 0.00037082, No Iterations 2
Solving ODE 
startValue 1(0.71177)
startTime 0.004
endTime 0.005
nSteps = 100
tolerance = 0.0001
solution = 0.704688                0.951229                       5
GAMG:  Solving for p, Initial residual = 0.00144165, Final residual = 6.81846e-05, No Iterations 2
Solving ODE 
startValue 1(0.704688)
startTime 0.004
endTime 0.005
nSteps = 100
tolerance = 0.0001
solution = 0.697676                0.951229                       5
GAMG:  Solving for p, Initial residual = 0.00109092, Final residual = 4.86046e-05, No Iterations 1
time step continuity errors : sum local = 2.92418e-09, global = 1.44235e-10
Solving ODE 
startValue 1(0.697676)
startTime 0.004
endTime 0.005
nSteps = 100
tolerance = 0.0001
solution = 0.690734                0.951229                       5
GAMG:  Solving for p, Initial residual = 0.00153947, Final residual = 6.93379e-05, No Iterations 1
Solving ODE 
startValue 1(0.690734)
startTime 0.004
endTime 0.005
nSteps = 100
tolerance = 0.0001
solution = 0.683861                0.951229                       5
GAMG:  Solving for p, Initial residual = 0.00105142, Final residual = 3.38791e-05, No Iterations 1
Solving ODE 
startValue 1(0.683861)
startTime 0.004
endTime 0.005
nSteps = 100
tolerance = 0.0001
solution = 0.677057                0.951229                       5
GAMG:  Solving for p, Initial residual = 0.00100605, Final residual = 2.31878e-05, No Iterations 1
Solving ODE 
startValue 1(0.677057)
startTime 0.004
endTime 0.005
nSteps = 100
tolerance = 0.0001
solution = 0.67032                0.951229                       5
GAMG:  Solving for p, Initial residual = 0.000985464, Final residual = 6.69281e-07, No Iterations 5
time step continuity errors : sum local = 4.0255e-11, global = 4.1588e-12, cumulative = -4.68616e-09
ExecutionTime = 0.091623 s  ClockTime = 0 s

Courant Number mean: 0.0188572 max: 0.0488241
Time = 0.006s

smoothSolver:  Solving for Ux, Initial residual = 0.00293853, Final residual = 2.92987e-08, No Iterations 2
smoothSolver:  Solving for Uy, Initial residual = 0.000395978, Final residual = 4.48318e-06, No Iterations 1
Solving ODE 
startValue 1(0.67032)
startTime 0.005
endTime 0.006
nSteps = 100
tolerance = 0.0001
solution = 0.66365                0.941765                       6
GAMG:  Solving for p, Initial residual = 0.0833302, Final residual = 0.00493291, No Iterations 1
Solving ODE 
startValue 1(0.66365)
startTime 0.005
endTime 0.006
nSteps = 100
tolerance = 0.0001
solution = 0.657047                0.941765                       6
GAMG:  Solving for p, Initial residual = 0.00630885, Final residual = 0.000317307, No Iterations 2
Solving ODE 
startValue 1(0.657047)
startTime 0.005
endTime 0.006
nSteps = 100
tolerance = 0.0001
solution = 0.650509                0.941765                       6
GAMG:  Solving for p, Initial residual = 0.00141503, Final residual = 6.34968e-05, No Iterations 2
Solving ODE 
startValue 1(0.650509)
startTime 0.005
endTime 0.006
nSteps = 100
tolerance = 0.0001
solution = 0.644036                0.941765                       6
GAMG:  Solving for p, Initial residual = 0.00112536, Final residual = 4.49638e-05, No Iterations 1
time step continuity errors : sum local = 2.38252e-09, global = -8.98795e-11
Solving ODE 
startValue 1(0.644036)
startTime 0.005
endTime 0.006
nSteps = 100
tolerance = 0.0001
solution = 0.637628                0.941765                       6
GAMG:  Solving for p, Initial residual = 0.0015025, Final residual = 5.9792e-05, No Iterations 1
Solving ODE 
startValue 1(0.637628)
startTime 0.005
endTime 0.006
nSteps = 100
tolerance = 0.0001
solution = 0.631284                0.941765                       6
GAMG:  Solving for p, Initial residual = 0.00108907, Final residual = 2.84579e-05, No Iterations 1
Solving ODE 
startValue 1(0.631284)
startTime 0.005
endTime 0.006
nSteps = 100
tolerance = 0.0001
solution = 0.625002                0.941765                       6
GAMG:  Solving for p, Initial residual = 0.00104753, Final residual = 1.84275e-05, No Iterations 1
Solving ODE 
startValue 1(0.625002)
startTime 0.005
endTime 0.006
nSteps = 100
tolerance = 0.0001
solution = 0.618783                0.941765                       6
GAMG:  Solving for p, Initial residual = 0.00102725, Final residual = 9.71094e-07, No Iterations 4
time step continuity errors : sum local = 5.14275e-11, global = 9.47984e-12, cumulative = -4.67668e-09
ExecutionTime = 0.095743 s  ClockTime = 0 s

Courant Number mean: 0.0188573 max: 0.0488106
Time = 0.007s

smoothSolver:  Solving for Ux, Initial residual = 0.00241633, Final residual = 2.44482e-08, No Iterations 2
smoothSolver:  Solving for Uy, Initial residual = 0.000377426, Final residual = 4.36367e-06, No Iterations 1
Solving ODE 
startValue 1(0.618783)
startTime 0.006
endTime 0.007
nSteps = 100
tolerance = 0.0001
solution = 0.612626                0.932394                       7
GAMG:  Solving for p, Initial residual = 0.0694991, Final residual = 0.0040867, No Iterations 1
Solving ODE 
startValue 1(0.612626)
startTime 0.006
endTime 0.007
nSteps = 100
tolerance = 0.0001
solution = 0.606531                0.932394                       7
GAMG:  Solving for p, Initial residual = 0.00537492, Final residual = 0.000267143, No Iterations 2
Solving ODE 
startValue 1(0.606531)
startTime 0.006
endTime 0.007
nSteps = 100
tolerance = 0.0001
solution = 0.600496                0.932394                       7
GAMG:  Solving for p, Initial residual = 0.00138098, Final residual = 5.38004e-05, No Iterations 2
Solving ODE 
startValue 1(0.600496)
startTime 0.006
endTime 0.007
nSteps = 100
tolerance = 0.0001
solution = 0.594521                0.932394                       7
GAMG:  Solving for p, Initial residual = 0.00113622, Final residual = 3.78157e-05, No Iterations 1
time step continuity errors : sum local = 1.81053e-09, global = -6.90569e-11
Solving ODE 
startValue 1(0.594521)
startTime 0.006
endTime 0.007
nSteps = 100
tolerance = 0.0001
solution = 0.588605                0.932394                       7
GAMG:  Solving for p, Initial residual = 0.00144697, Final residual = 5.01636e-05, No Iterations 1
Solving ODE 
startValue 1(0.588605)
startTime 0.006
endTime 0.007
nSteps = 100
tolerance = 0.0001
solution = 0.582748                0.932394                       7
GAMG:  Solving for p, Initial residual = 0.00110161, Final residual = 2.39366e-05, No Iterations 1
Solving ODE 
startValue 1(0.582748)
startTime 0.006
endTime 0.007
nSteps = 100
tolerance = 0.0001
solution = 0.57695                0.932394                       7
GAMG:  Solving for p, Initial residual = 0.00106485, Final residual = 1.54876e-05, No Iterations 1
Solving ODE 
startValue 1(0.57695)
startTime 0.006
endTime 0.007
nSteps = 100
tolerance = 0.0001
solution = 0.571209                0.932394                       7
GAMG:  Solving for p, Initial residual = 0.00104596, Final residual = 7.84304e-07, No Iterations 4
time step continuity errors : sum local = 3.7533e-11, global = 6.60145e-12, cumulative = -4.67008e-09
ExecutionTime = 0.100355 s  ClockTime = 0 s

Courant Number mean: 0.0188573 max: 0.0487991
Time = 0.008s

smoothSolver:  Solving for Ux, Initial residual = 0.00204322, Final residual = 8.88629e-06, No Iterations 1
smoothSolver:  Solving for Uy, Initial residual = 0.000364067, Final residual = 4.27841e-06, No Iterations 1
Solving ODE 
startValue 1(0.571209)
startTime 0.007
endTime 0.008
nSteps = 100
tolerance = 0.0001
solution = 0.565525                0.923116                       8
GAMG:  Solving for p, Initial residual = 0.0584366, Final residual = 0.00341681, No Iterations 1
Solving ODE 
startValue 1(0.565525)
startTime 0.007
endTime 0.008
nSteps = 100
tolerance = 0.0001
solution = 0.559898                0.923116                       8
GAMG:  Solving for p, Initial residual = 0.00464111, Final residual = 0.000226585, No Iterations 2
Solving ODE 
startValue 1(0.559898)
startTime 0.007
endTime 0.008
nSteps = 100
tolerance = 0.0001
solution = 0.554327                0.923116                       8
GAMG:  Solving for p, Initial residual = 0.00133765, Final residual = 0.000132829, No Iterations 1
Solving ODE 
startValue 1(0.554327)
startTime 0.007
endTime 0.008
nSteps = 100
tolerance = 0.0001
solution = 0.548812                0.923116                       8
GAMG:  Solving for p, Initial residual = 0.00121026, Final residual = 8.44457e-05, No Iterations 1
time step continuity errors : sum local = 3.72313e-09, global = -4.05536e-10
Solving ODE 
startValue 1(0.548812)
startTime 0.007
endTime 0.008
nSteps = 100
tolerance = 0.0001
solution = 0.543351                0.923116                       8
GAMG:  Solving for p, Initial residual = 0.00142402, Final residual = 6.2008e-05, No Iterations 1
Solving ODE 
startValue 1(0.543351)
startTime 0.007
endTime 0.008
nSteps = 100
tolerance = 0.0001
solution = 0.537944                0.923116                       8
GAMG:  Solving for p, Initial residual = 0.00111603, Final residual = 3.90851e-05, No Iterations 1
Solving ODE 
startValue 1(0.537944)
startTime 0.007
endTime 0.008
nSteps = 100
tolerance = 0.0001
solution = 0.532592                0.923116                       8
GAMG:  Solving for p, Initial residual = 0.00108262, Final residual = 2.93605e-05, No Iterations 1
Solving ODE 
startValue 1(0.532592)
startTime 0.007
endTime 0.008
nSteps = 100
tolerance = 0.0001
solution = 0.527292                0.923116                       8
GAMG:  Solving for p, Initial residual = 0.00106235, Final residual = 3.828e-07, No Iterations 5
time step continuity errors : sum local = 1.68704e-11, global = 1.82487e-12, cumulative = -4.66826e-09
ExecutionTime = 0.104679 s  ClockTime = 0 s

Courant Number mean: 0.0188574 max: 0.0487892
Time = 0.009s

smoothSolver:  Solving for Ux, Initial residual = 0.00176126, Final residual = 7.56736e-06, No Iterations 1
smoothSolver:  Solving for Uy, Initial residual = 0.000354461, Final residual = 4.22149e-06, No Iterations 1
Solving ODE 
startValue 1(0.527292)
startTime 0.008
endTime 0.009
nSteps = 100
tolerance = 0.0001
solution = 0.522046                0.913931                       9
GAMG:  Solving for p, Initial residual = 0.0495953, Final residual = 0.00288607, No Iterations 1
Solving ODE 
startValue 1(0.522046)
startTime 0.008
endTime 0.009
nSteps = 100
tolerance = 0.0001
solution = 0.516851                0.913931                       9
GAMG:  Solving for p, Initial residual = 0.00405593, Final residual = 0.000193459, No Iterations 2
Solving ODE 
startValue 1(0.516851)
startTime 0.008
endTime 0.009
nSteps = 100
tolerance = 0.0001
solution = 0.511709                0.913931                       9
GAMG:  Solving for p, Initial residual = 0.00128772, Final residual = 0.000112021, No Iterations 1
Solving ODE 
startValue 1(0.511709)
startTime 0.008
endTime 0.009
nSteps = 100
tolerance = 0.0001
solution = 0.506617                0.913931                       9
GAMG:  Solving for p, Initial residual = 0.00117687, Final residual = 7.07519e-05, No Iterations 1
time step continuity errors : sum local = 2.91273e-09, global = -3.04847e-10
Solving ODE 
startValue 1(0.506617)
startTime 0.008
endTime 0.009
nSteps = 100
tolerance = 0.0001
solution = 0.501576                0.913931                       9
GAMG:  Solving for p, Initial residual = 0.0013515, Final residual = 5.15046e-05, No Iterations 1
Solving ODE 
startValue 1(0.501576)
startTime 0.008
endTime 0.009
nSteps = 100
tolerance = 0.0001
solution = 0.496585                0.913931                       9
GAMG:  Solving for p, Initial residual = 0.00109344, Final residual = 3.25668e-05, No Iterations 1
Solving ODE 
startValue 1(0.496585)
startTime 0.008
endTime 0.009
nSteps = 100
tolerance = 0.0001
solution = 0.491644                0.913931                       9
GAMG:  Solving for p, Initial residual = 0.00106408, Final residual = 2.44241e-05, No Iterations 1
Solving ODE 
startValue 1(0.491644)
startTime 0.008
endTime 0.009
nSteps = 100
tolerance = 0.0001
solution = 0.486752                0.913931                       9
GAMG:  Solving for p, Initial residual = 0.00104554, Final residual = 9.62901e-07, No Iterations 4
time step continuity errors : sum local = 3.96269e-11, global = 3.90044e-12, cumulative = -4.66435e-09
ExecutionTime = 0.108562 s  ClockTime = 0 s

Courant Number mean: 0.0188574 max: 0.0487805
Time = 0.01s

smoothSolver:  Solving for Ux, Initial residual = 0.00154292, Final residual = 6.54942e-06, No Iterations 1
smoothSolver:  Solving for Uy, Initial residual = 0.000347168, Final residual = 4.1766e-06, No Iterations 1
Solving ODE 
startValue 1(0.486752)
startTime 0.009
endTime 0.01
nSteps = 100
tolerance = 0.0001
solution = 0.481909                0.904837                      10
GAMG:  Solving for p, Initial residual = 0.0425751, Final residual = 0.00246348, No Iterations 1
Solving ODE 
startValue 1(0.481909)
startTime 0.009
endTime 0.01
nSteps = 100
tolerance = 0.0001
solution = 0.477114                0.904837                      10
GAMG:  Solving for p, Initial residual = 0.00358401, Final residual = 0.000166282, No Iterations 2
Solving ODE 
startValue 1(0.477114)
startTime 0.009
endTime 0.01
nSteps = 100
tolerance = 0.0001
solution = 0.472367                0.904837                      10
GAMG:  Solving for p, Initial residual = 0.00123399, Final residual = 9.49417e-05, No Iterations 1
Solving ODE 
startValue 1(0.472367)
startTime 0.009
endTime 0.01
nSteps = 100
tolerance = 0.0001
solution = 0.467666                0.904837                      10
GAMG:  Solving for p, Initial residual = 0.00113671, Final residual = 5.94729e-05, No Iterations 1
time step continuity errors : sum local = 2.30964e-09, global = -2.3036e-10
Solving ODE 
startValue 1(0.467666)
startTime 0.009
endTime 0.01
nSteps = 100
tolerance = 0.0001
solution = 0.463013                0.904837                      10
GAMG:  Solving for p, Initial residual = 0.00127872, Final residual = 4.28457e-05, No Iterations 1
Solving ODE 
startValue 1(0.463013)
startTime 0.009
endTime 0.01
nSteps = 100
tolerance = 0.0001
solution = 0.458406                0.904837                      10
GAMG:  Solving for p, Initial residual = 0.00106235, Final residual = 2.70978e-05, No Iterations 1
Solving ODE 
startValue 1(0.458406)
startTime 0.009
endTime 0.01
nSteps = 100
tolerance = 0.0001
solution = 0.453845                0.904837                      10
GAMG:  Solving for p, Initial residual = 0.0010364, Final residual = 2.02795e-05, No Iterations 1
Solving ODE 
startValue 1(0.453845)
startTime 0.009
endTime 0.01
nSteps = 100
tolerance = 0.0001
solution = 0.449329                0.904837                      10
GAMG:  Solving for p, Initial residual = 0.00101941, Final residual = 7.91853e-07, No Iterations 4
time step continuity errors : sum local = 3.07429e-11, global = 2.92985e-12, cumulative = -4.66142e-09
ExecutionTime = 0.112543 s  ClockTime = 0 s

Courant Number mean: 0.0188575 max: 0.0487727
Time = 0.011s

smoothSolver:  Solving for Ux, Initial residual = 0.0013703, Final residual = 5.74728e-06, No Iterations 1
smoothSolver:  Solving for Uy, Initial residual = 0.000342116, Final residual = 4.14675e-06, No Iterations 1
Solving ODE 
startValue 1(0.449329)
startTime 0.01
endTime 0.011
nSteps = 100
tolerance = 0.0001
solution = 0.444858                0.895834                      11
GAMG:  Solving for p, Initial residual = 0.0369806, Final residual = 0.0021264, No Iterations 1
Solving ODE 
startValue 1(0.444858)
startTime 0.01
endTime 0.011
nSteps = 100
tolerance = 0.0001
solution = 0.440432                0.895834                      11
GAMG:  Solving for p, Initial residual = 0.00319905, Final residual = 0.000144626, No Iterations 2
Solving ODE 
startValue 1(0.440432)
startTime 0.01
endTime 0.011
nSteps = 100
tolerance = 0.0001
solution = 0.436049                0.895834                      11
GAMG:  Solving for p, Initial residual = 0.00117919, Final residual = 8.10213e-05, No Iterations 1
Solving ODE 
startValue 1(0.436049)
startTime 0.01
endTime 0.011
nSteps = 100
tolerance = 0.0001
solution = 0.431711                0.895834                      11
GAMG:  Solving for p, Initial residual = 0.00109256, Final residual = 5.00265e-05, No Iterations 1
time step continuity errors : sum local = 1.84672e-09, global = -1.8474e-10
Solving ODE 
startValue 1(0.431711)
startTime 0.01
endTime 0.011
nSteps = 100
tolerance = 0.0001
solution = 0.427415                0.895834                      11
GAMG:  Solving for p, Initial residual = 0.00120808, Final residual = 3.55783e-05, No Iterations 1
Solving ODE 
startValue 1(0.427415)
startTime 0.01
endTime 0.011
nSteps = 100
tolerance = 0.0001
solution = 0.423162                0.895834                      11
GAMG:  Solving for p, Initial residual = 0.00102559, Final residual = 2.23347e-05, No Iterations 1
Solving ODE 
startValue 1(0.423162)
startTime 0.01
endTime 0.011
nSteps = 100
tolerance = 0.0001
solution = 0.418952                0.895834                      11
GAMG:  Solving for p, Initial residual = 0.00100246, Final residual = 1.64602e-05, No Iterations 1
Solving ODE 
startValue 1(0.418952)
startTime 0.01
endTime 0.011
nSteps = 100
tolerance = 0.0001
solution = 0.414783                0.895834                      11
GAMG:  Solving for p, Initial residual = 0.00098673, Final residual = 6.66932e-07, No Iterations 4
time step continuity errors : sum local = 2.4613e-11, global = 2.47663e-12, cumulative = -4.65895e-09
ExecutionTime = 0.116418 s  ClockTime = 0 s

Courant Number mean: 0.0188575 max: 0.0487657
Time = 0.012s

smoothSolver:  Solving for Ux, Initial residual = 0.00123098, Final residual = 5.10083e-06, No Iterations 1
smoothSolver:  Solving for Uy, Initial residual = 0.000338719, Final residual = 4.12403e-06, No Iterations 1
Solving ODE 
startValue 1(0.414783)
startTime 0.011
endTime 0.012
nSteps = 100
tolerance = 0.0001
solution = 0.410656                 0.88692                      12
GAMG:  Solving for p, Initial residual = 0.0324973, Final residual = 0.00185736, No Iterations 1
Solving ODE 
startValue 1(0.410656)
startTime 0.011
endTime 0.012
nSteps = 100
tolerance = 0.0001
solution = 0.40657                 0.88692                      12
GAMG:  Solving for p, Initial residual = 0.00288433, Final residual = 0.000126507, No Iterations 2
Solving ODE 
startValue 1(0.40657)
startTime 0.011
endTime 0.012
nSteps = 100
tolerance = 0.0001
solution = 0.402524                 0.88692                      12
GAMG:  Solving for p, Initial residual = 0.00112388, Final residual = 6.97488e-05, No Iterations 1
Solving ODE 
startValue 1(0.402524)
startTime 0.011
endTime 0.012
nSteps = 100
tolerance = 0.0001
solution = 0.398519                 0.88692                      12
GAMG:  Solving for p, Initial residual = 0.00104636, Final residual = 4.26675e-05, No Iterations 1
time step continuity errors : sum local = 1.50568e-09, global = -1.4342e-10
Solving ODE 
startValue 1(0.398519)
startTime 0.011
endTime 0.012
nSteps = 100
tolerance = 0.0001
solution = 0.394554                 0.88692                      12
GAMG:  Solving for p, Initial residual = 0.00114059, Final residual = 2.98572e-05, No Iterations 1
Solving ODE 
startValue 1(0.394554)
startTime 0.011
endTime 0.012
nSteps = 100
tolerance = 0.0001
solution = 0.390628                 0.88692                      12
GAMG:  Solving for p, Initial residual = 0.000985779, Final residual = 1.87566e-05, No Iterations 1
Solving ODE 
startValue 1(0.390628)
startTime 0.011
endTime 0.012
nSteps = 100
tolerance = 0.0001
solution = 0.386741                 0.88692                      12
GAMG:  Solving for p, Initial residual = 0.000965162, Final residual = 1.36669e-05, No Iterations 1
Solving ODE 
startValue 1(0.386741)
startTime 0.011
endTime 0.012
nSteps = 100
tolerance = 0.0001
solution = 0.382893                 0.88692                      12
GAMG:  Solving for p, Initial residual = 0.000950565, Final residual = 5.26672e-07, No Iterations 4
time step continuity errors : sum local = 1.85814e-11, global = 1.79084e-12, cumulative = -4.65716e-09
ExecutionTime = 0.12028 s  ClockTime = 0 s

Courant Number mean: 0.0188576 max: 0.0487594
Time = 0.013s

smoothSolver:  Solving for Ux, Initial residual = 0.00111656, Final residual = 4.57019e-06, No Iterations 1
smoothSolver:  Solving for Uy, Initial residual = 0.000336291, Final residual = 4.11002e-06, No Iterations 1
Solving ODE 
startValue 1(0.382893)
startTime 0.012
endTime 0.013
nSteps = 100
tolerance = 0.0001
solution = 0.379083                0.878095                      13
GAMG:  Solving for p, Initial residual = 0.028885, Final residual = 0.0016426, No Iterations 1
Solving ODE 
startValue 1(0.379083)
startTime 0.012
endTime 0.013
nSteps = 100
tolerance = 0.0001
solution = 0.375311                0.878095                      13
GAMG:  Solving for p, Initial residual = 0.00262441, Final residual = 0.000111554, No Iterations 2
Solving ODE 
startValue 1(0.375311)
startTime 0.012
endTime 0.013
nSteps = 100
tolerance = 0.0001
solution = 0.371577                0.878095                      13
GAMG:  Solving for p, Initial residual = 0.00106907, Final residual = 6.03489e-05, No Iterations 1
Solving ODE 
startValue 1(0.371577)
startTime 0.012
endTime 0.013
nSteps = 100
tolerance = 0.0001
solution = 0.367879                0.878095                      13
GAMG:  Solving for p, Initial residual = 0.000998969, Final residual = 3.64786e-05, No Iterations 1
time step continuity errors : sum local = 1.23617e-09, global = -1.12836e-10
Solving ODE 
startValue 1(0.367879)
startTime 0.012
endTime 0.013
nSteps = 100
tolerance = 0.0001
solution = 0.364219                0.878095                      13
GAMG:  Solving for p, Initial residual = 0.00107618, Final residual = 2.50452e-05, No Iterations 1
Solving ODE 
startValue 1(0.364219)
startTime 0.012
endTime 0.013
nSteps = 100
tolerance = 0.0001
solution = 0.360595                0.878095                      13
GAMG:  Solving for p, Initial residual = 0.000943901, Final residual = 1.56575e-05, No Iterations 1
Solving ODE 
startValue 1(0.360595)
startTime 0.012
endTime 0.013
nSteps = 100
tolerance = 0.0001
solution = 0.357007                0.878095                      13
GAMG:  Solving for p, Initial residual = 0.00092538, Final residual = 1.12798e-05, No Iterations 1
Solving ODE 
startValue 1(0.357007)
startTime 0.012
endTime 0.013
nSteps = 100
tolerance = 0.0001
solution = 0.353455                0.878095                      13
GAMG:  Solving for p, Initial residual = 0.000911873, Final residual = 4.05019e-07, No Iterations 4
time step continuity errors : sum local = 1.37225e-11, global = 1.39655e-12, cumulative = -4.65576e-09
ExecutionTime = 0.12413 s  ClockTime = 0 s

Courant Number mean: 0.0188576 max: 0.0487535
Time = 0.014s

smoothSolver:  Solving for Ux, Initial residual = 0.00102114, Final residual = 4.1295e-06, No Iterations 1
smoothSolver:  Solving for Uy, Initial residual = 0.000334301, Final residual = 4.09473e-06, No Iterations 1
Solving ODE 
startValue 1(0.353455)
startTime 0.013
endTime 0.014
nSteps = 100
tolerance = 0.0001
solution = 0.349938                0.869358                      14
GAMG:  Solving for p, Initial residual = 0.026015, Final residual = 0.00146839, No Iterations 1
Solving ODE 
startValue 1(0.349938)
startTime 0.013
endTime 0.014
nSteps = 100
tolerance = 0.0001
solution = 0.346456                0.869358                      14
GAMG:  Solving for p, Initial residual = 0.00240515, Final residual = 9.91569e-05, No Iterations 2
Solving ODE 
startValue 1(0.346456)
startTime 0.013
endTime 0.014
nSteps = 100
tolerance = 0.0001
solution = 0.343009                0.869358                      14
GAMG:  Solving for p, Initial residual = 0.00101541, Final residual = 5.26329e-05, No Iterations 1
Solving ODE 
startValue 1(0.343009)
startTime 0.013
endTime 0.014
nSteps = 100
tolerance = 0.0001
solution = 0.339596                0.869358                      14
GAMG:  Solving for p, Initial residual = 0.000951475, Final residual = 3.13682e-05, No Iterations 1
time step continuity errors : sum local = 1.0245e-09, global = -8.97766e-11
Solving ODE 
startValue 1(0.339596)
startTime 0.013
endTime 0.014
nSteps = 100
tolerance = 0.0001
solution = 0.336216                0.869358                      14
GAMG:  Solving for p, Initial residual = 0.00101528, Final residual = 2.1148e-05, No Iterations 1
Solving ODE 
startValue 1(0.336216)
startTime 0.013
endTime 0.014
nSteps = 100
tolerance = 0.0001
solution = 0.332871                0.869358                      14
GAMG:  Solving for p, Initial residual = 0.000901194, Final residual = 1.312e-05, No Iterations 1
Solving ODE 
startValue 1(0.332871)
startTime 0.013
endTime 0.014
nSteps = 100
tolerance = 0.0001
solution = 0.329559                0.869358                      14
GAMG:  Solving for p, Initial residual = 0.000884424, Final residual = 9.3553e-06, No Iterations 1
Solving ODE 
startValue 1(0.329559)
startTime 0.013
endTime 0.014
nSteps = 100
tolerance = 0.0001
solution = 0.32628                0.869358                      14
GAMG:  Solving for p, Initial residual = 0.000871926, Final residual = 8.35383e-07, No Iterations 3
time step continuity errors : sum local = 2.72793e-11, global = 4.60791e-12, cumulative = -4.65115e-09
ExecutionTime = 0.128001 s  ClockTime = 0 s

Courant Number mean: 0.0188577 max: 0.0487479
Time = 0.015s

smoothSolver:  Solving for Ux, Initial residual = 0.000940459, Final residual = 3.75926e-06, No Iterations 1
smoothSolver:  Solving for Uy, Initial residual = 0.000332724, Final residual = 4.08236e-06, No Iterations 1
Solving ODE 
startValue 1(0.32628)
startTime 0.014
endTime 0.015
nSteps = 100
tolerance = 0.0001
solution = 0.323033                0.860708                      15
GAMG:  Solving for p, Initial residual = 0.0236946, Final residual = 0.00132477, No Iterations 1
Solving ODE 
startValue 1(0.323033)
startTime 0.014
endTime 0.015
nSteps = 100
tolerance = 0.0001
solution = 0.319819                0.860708                      15
GAMG:  Solving for p, Initial residual = 0.00221768, Final residual = 8.87605e-05, No Iterations 2
Solving ODE 
startValue 1(0.319819)
startTime 0.014
endTime 0.015
nSteps = 100
tolerance = 0.0001
solution = 0.316637                0.860708                      15
GAMG:  Solving for p, Initial residual = 0.00096333, Final residual = 4.61879e-05, No Iterations 1
Solving ODE 
startValue 1(0.316637)
startTime 0.014
endTime 0.015
nSteps = 100
tolerance = 0.0001
solution = 0.313486                0.860708                      15
GAMG:  Solving for p, Initial residual = 0.000904377, Final residual = 2.70985e-05, No Iterations 1
time step continuity errors : sum local = 8.55553e-10, global = -7.07259e-11
Solving ODE 
startValue 1(0.313486)
startTime 0.014
endTime 0.015
nSteps = 100
tolerance = 0.0001
solution = 0.310367                0.860708                      15
GAMG:  Solving for p, Initial residual = 0.000957896, Final residual = 1.79709e-05, No Iterations 1
Solving ODE 
startValue 1(0.310367)
startTime 0.014
endTime 0.015
nSteps = 100
tolerance = 0.0001
solution = 0.307279                0.860708                      15
GAMG:  Solving for p, Initial residual = 0.000858309, Final residual = 1.10564e-05, No Iterations 1
Solving ODE 
startValue 1(0.307279)
startTime 0.014
endTime 0.015
nSteps = 100
tolerance = 0.0001
solution = 0.304221                0.860708                      15
GAMG:  Solving for p, Initial residual = 0.000843065, Final residual = 7.80905e-06, No Iterations 1
Solving ODE 
startValue 1(0.304221)
startTime 0.014
endTime 0.015
nSteps = 100
tolerance = 0.0001
solution = 0.301194                0.860708                      15
GAMG:  Solving for p, Initial residual = 0.00083149, Final residual = 7.0745e-07, No Iterations 3
time step continuity errors : sum local = 2.23324e-11, global = 4.19866e-12, cumulative = -4.64695e-09
ExecutionTime = 0.131857 s  ClockTime = 0 s

Courant Number mean: 0.0188577 max: 0.0487426
Time = 0.016s

smoothSolver:  Solving for Ux, Initial residual = 0.000871296, Final residual = 3.44433e-06, No Iterations 1
smoothSolver:  Solving for Uy, Initial residual = 0.000331402, Final residual = 4.06979e-06, No Iterations 1
Solving ODE 
startValue 1(0.301194)
startTime 0.015
endTime 0.016
nSteps = 100
tolerance = 0.0001
solution = 0.298197                0.852144                      16
GAMG:  Solving for p, Initial residual = 0.0223583, Final residual = 0.00120543, No Iterations 1
Solving ODE 
startValue 1(0.298197)
startTime 0.015
endTime 0.016
nSteps = 100
tolerance = 0.0001
solution = 0.29523                0.852144                      16
GAMG:  Solving for p, Initial residual = 0.00205617, Final residual = 8.01559e-05, No Iterations 2
Solving ODE 
startValue 1(0.29523)
startTime 0.015
endTime 0.016
nSteps = 100
tolerance = 0.0001
solution = 0.292293                0.852144                      16
GAMG:  Solving for p, Initial residual = 0.000913209, Final residual = 4.09728e-05, No Iterations 1
Solving ODE 
startValue 1(0.292293)
startTime 0.015
endTime 0.016
nSteps = 100
tolerance = 0.0001
solution = 0.289384                0.852144                      16
GAMG:  Solving for p, Initial residual = 0.000858322, Final residual = 2.368e-05, No Iterations 1
time step continuity errors : sum local = 7.24559e-10, global = -5.95634e-11
Solving ODE 
startValue 1(0.289384)
startTime 0.015
endTime 0.016
nSteps = 100
tolerance = 0.0001
solution = 0.286505                0.852144                      16
GAMG:  Solving for p, Initial residual = 0.000904688, Final residual = 1.54924e-05, No Iterations 1
Solving ODE 
startValue 1(0.286505)
startTime 0.015
endTime 0.016
nSteps = 100
tolerance = 0.0001
solution = 0.283654                0.852144                      16
GAMG:  Solving for p, Initial residual = 0.000815908, Final residual = 9.45924e-06, No Iterations 1
Solving ODE 
startValue 1(0.283654)
startTime 0.015
endTime 0.016
nSteps = 100
tolerance = 0.0001
solution = 0.280832                0.852144                      16
GAMG:  Solving for p, Initial residual = 0.000801943, Final residual = 6.63336e-06, No Iterations 1
Solving ODE 
startValue 1(0.280832)
startTime 0.015
endTime 0.016
nSteps = 100
tolerance = 0.0001
solution = 0.278037                0.852144                      16
GAMG:  Solving for p, Initial residual = 0.000791199, Final residual = 6.42701e-07, No Iterations 3
time step continuity errors : sum local = 1.96627e-11, global = 2.65841e-12, cumulative = -4.6443e-09
ExecutionTime = 0.135743 s  ClockTime = 0 s

Courant Number mean: 0.0188578 max: 0.0487375
Time = 0.017s

smoothSolver:  Solving for Ux, Initial residual = 0.000811355, Final residual = 3.17265e-06, No Iterations 1
smoothSolver:  Solving for Uy, Initial residual = 0.000330295, Final residual = 4.05983e-06, No Iterations 1
Solving ODE 
startValue 1(0.278037)
startTime 0.016
endTime 0.017
nSteps = 100
tolerance = 0.0001
solution = 0.275271                0.843665                      17
GAMG:  Solving for p, Initial residual = 0.0212632, Final residual = 0.00110299, No Iterations 1
Solving ODE 
startValue 1(0.275271)
startTime 0.016
endTime 0.017
nSteps = 100
tolerance = 0.0001
solution = 0.272532                0.843665                      17
GAMG:  Solving for p, Initial residual = 0.00191215, Final residual = 7.26493e-05, No Iterations 2
Solving ODE 
startValue 1(0.272532)
startTime 0.016
endTime 0.017
nSteps = 100
tolerance = 0.0001
solution = 0.26982                0.843665                      17
GAMG:  Solving for p, Initial residual = 0.000864565, Final residual = 3.64505e-05, No Iterations 1
Solving ODE 
startValue 1(0.26982)
startTime 0.016
endTime 0.017
nSteps = 100
tolerance = 0.0001
solution = 0.267135                0.843665                      17
GAMG:  Solving for p, Initial residual = 0.000813239, Final residual = 2.07821e-05, No Iterations 1
time step continuity errors : sum local = 6.17618e-10, global = -5.02349e-11
Solving ODE 
startValue 1(0.267135)
startTime 0.016
endTime 0.017
nSteps = 100
tolerance = 0.0001
solution = 0.264477                0.843665                      17
GAMG:  Solving for p, Initial residual = 0.000854818, Final residual = 1.34868e-05, No Iterations 1
Solving ODE 
startValue 1(0.264477)
startTime 0.016
endTime 0.017
nSteps = 100
tolerance = 0.0001
solution = 0.261846                0.843665                      17
GAMG:  Solving for p, Initial residual = 0.000774212, Final residual = 8.20644e-06, No Iterations 1
Solving ODE 
startValue 1(0.261846)
startTime 0.016
endTime 0.017
nSteps = 100
tolerance = 0.0001
solution = 0.25924                0.843665                      17
GAMG:  Solving for p, Initial residual = 0.00076141, Final residual = 5.75732e-06, No Iterations 1
Solving ODE 
startValue 1(0.25924)
startTime 0.016
endTime 0.017
nSteps = 100
tolerance = 0.0001
solution = 0.256661                0.843665                      17
GAMG:  Solving for p, Initial residual = 0.000751444, Final residual = 6.7881e-07, No Iterations 3
time step continuity errors : sum local = 2.01708e-11, global = 1.46962e-12, cumulative = -4.64283e-09
ExecutionTime = 0.139573 s  ClockTime = 0 s

Courant Number mean: 0.0188578 max: 0.0487324
Time = 0.018s

smoothSolver:  Solving for Ux, Initial residual = 0.000758958, Final residual = 2.93655e-06, No Iterations 1
smoothSolver:  Solving for Uy, Initial residual = 0.000329536, Final residual = 4.05351e-06, No Iterations 1
Solving ODE 
startValue 1(0.256661)
startTime 0.017
endTime 0.018
nSteps = 100
tolerance = 0.0001
solution = 0.254107                 0.83527                      18
GAMG:  Solving for p, Initial residual = 0.0202941, Final residual = 0.00101447, No Iterations 1
Solving ODE 
startValue 1(0.254107)
startTime 0.017
endTime 0.018
nSteps = 100
tolerance = 0.0001
solution = 0.251579                 0.83527                      18
GAMG:  Solving for p, Initial residual = 0.00178287, Final residual = 6.65387e-05, No Iterations 2
Solving ODE 
startValue 1(0.251579)
startTime 0.017
endTime 0.018
nSteps = 100
tolerance = 0.0001
solution = 0.249075                 0.83527                      18
GAMG:  Solving for p, Initial residual = 0.000817858, Final residual = 3.26049e-05, No Iterations 1
Solving ODE 
startValue 1(0.249075)
startTime 0.017
endTime 0.018
nSteps = 100
tolerance = 0.0001
solution = 0.246597                 0.83527                      18
GAMG:  Solving for p, Initial residual = 0.000769512, Final residual = 1.83422e-05, No Iterations 1
time step continuity errors : sum local = 5.30414e-10, global = -4.23785e-11
Solving ODE 
startValue 1(0.246597)
startTime 0.017
endTime 0.018
nSteps = 100
tolerance = 0.0001
solution = 0.244143                 0.83527                      18
GAMG:  Solving for p, Initial residual = 0.000808017, Final residual = 1.18641e-05, No Iterations 1
Solving ODE 
startValue 1(0.244143)
startTime 0.017
endTime 0.018
nSteps = 100
tolerance = 0.0001
solution = 0.241714                 0.83527                      18
GAMG:  Solving for p, Initial residual = 0.000733563, Final residual = 7.29912e-06, No Iterations 1
Solving ODE 
startValue 1(0.241714)
startTime 0.017
endTime 0.018
nSteps = 100
tolerance = 0.0001
solution = 0.239309                 0.83527                      18
GAMG:  Solving for p, Initial residual = 0.000721885, Final residual = 5.23511e-06, No Iterations 1
Solving ODE 
startValue 1(0.239309)
startTime 0.017
endTime 0.018
nSteps = 100
tolerance = 0.0001
solution = 0.236928                 0.83527                      18
GAMG:  Solving for p, Initial residual = 0.000712667, Final residual = 7.56594e-07, No Iterations 3
time step continuity errors : sum local = 2.18763e-11, global = 3.22226e-13, cumulative = -4.6425e-09
ExecutionTime = 0.143369 s  ClockTime = 0 s

Courant Number mean: 0.0188579 max: 0.0487274
Time = 0.019s

smoothSolver:  Solving for Ux, Initial residual = 0.000716809, Final residual = 2.74388e-06, No Iterations 1
smoothSolver:  Solving for Uy, Initial residual = 0.000328869, Final residual = 4.04895e-06, No Iterations 1
Solving ODE 
startValue 1(0.236928)
startTime 0.018
endTime 0.019
nSteps = 100
tolerance = 0.0001
solution = 0.23457                0.826959                      19
GAMG:  Solving for p, Initial residual = 0.0194145, Final residual = 0.00093675, No Iterations 1
Solving ODE 
startValue 1(0.23457)
startTime 0.018
endTime 0.019
nSteps = 100
tolerance = 0.0001
solution = 0.232236                0.826959                      19
GAMG:  Solving for p, Initial residual = 0.0016652, Final residual = 6.13978e-05, No Iterations 2
Solving ODE 
startValue 1(0.232236)
startTime 0.018
endTime 0.019
nSteps = 100
tolerance = 0.0001
solution = 0.229925                0.826959                      19
GAMG:  Solving for p, Initial residual = 0.000772881, Final residual = 2.95016e-05, No Iterations 1
Solving ODE 
startValue 1(0.229925)
startTime 0.018
endTime 0.019
nSteps = 100
tolerance = 0.0001
solution = 0.227638                0.826959                      19
GAMG:  Solving for p, Initial residual = 0.000727296, Final residual = 1.63981e-05, No Iterations 1
time step continuity errors : sum local = 4.62244e-10, global = -3.62442e-11
Solving ODE 
startValue 1(0.227638)
startTime 0.018
endTime 0.019
nSteps = 100
tolerance = 0.0001
solution = 0.225373                0.826959                      19
GAMG:  Solving for p, Initial residual = 0.000764392, Final residual = 1.06499e-05, No Iterations 1
Solving ODE 
startValue 1(0.225373)
startTime 0.018
endTime 0.019
nSteps = 100
tolerance = 0.0001
solution = 0.22313                0.826959                      19
GAMG:  Solving for p, Initial residual = 0.00069412, Final residual = 6.82679e-06, No Iterations 1
Solving ODE 
startValue 1(0.22313)
startTime 0.018
endTime 0.019
nSteps = 100
tolerance = 0.0001
solution = 0.22091                0.826959                      19
GAMG:  Solving for p, Initial residual = 0.000683536, Final residual = 5.03295e-06, No Iterations 1
Solving ODE 
startValue 1(0.22091)
startTime 0.018
endTime 0.019
nSteps = 100
tolerance = 0.0001
solution = 0.218712                0.826959                      19
GAMG:  Solving for p, Initial residual = 0.000674956, Final residual = 8.27212e-07, No Iterations 3
time step continuity errors : sum local = 2.33156e-11, global = -8.76003e-13, cumulative = -4.64338e-09
ExecutionTime = 0.147318 s  ClockTime = 0 s

Courant Number mean: 0.0188579 max: 0.0487224
Time = 0.02s

smoothSolver:  Solving for Ux, Initial residual = 0.000690805, Final residual = 2.60999e-06, No Iterations 1
smoothSolver:  Solving for Uy, Initial residual = 0.000328328, Final residual = 4.04519e-06, No Iterations 1
Solving ODE 
startValue 1(0.218712)
startTime 0.019
endTime 0.02
nSteps = 100
tolerance = 0.0001
solution = 0.216536                0.818731                      20
GAMG:  Solving for p, Initial residual = 0.018605, Final residual = 0.000868383, No Iterations 1
Solving ODE 
startValue 1(0.216536)
startTime 0.019
endTime 0.02
nSteps = 100
tolerance = 0.0001
solution = 0.214381                0.818731                      20
GAMG:  Solving for p, Initial residual = 0.00155799, Final residual = 5.70894e-05, No Iterations 2
Solving ODE 
startValue 1(0.214381)
startTime 0.019
endTime 0.02
nSteps = 100
tolerance = 0.0001
solution = 0.212248                0.818731                      20
GAMG:  Solving for p, Initial residual = 0.000729883, Final residual = 2.69974e-05, No Iterations 1
Solving ODE 
startValue 1(0.212248)
startTime 0.019
endTime 0.02
nSteps = 100
tolerance = 0.0001
solution = 0.210136                0.818731                      20
GAMG:  Solving for p, Initial residual = 0.000686786, Final residual = 1.49091e-05, No Iterations 1
time step continuity errors : sum local = 4.10289e-10, global = -3.15262e-11
Solving ODE 
startValue 1(0.210136)
startTime 0.019
endTime 0.02
nSteps = 100
tolerance = 0.0001
solution = 0.208045                0.818731                      20
GAMG:  Solving for p, Initial residual = 0.000722893, Final residual = 9.8773e-06, No Iterations 1
Solving ODE 
startValue 1(0.208045)
startTime 0.019
endTime 0.02
nSteps = 100
tolerance = 0.0001
solution = 0.205975                0.818731                      20
GAMG:  Solving for p, Initial residual = 0.000656175, Final residual = 6.64423e-06, No Iterations 1
Solving ODE 
startValue 1(0.205975)
startTime 0.019
endTime 0.02
nSteps = 100
tolerance = 0.0001
solution = 0.203926                0.818731                      20
GAMG:  Solving for p, Initial residual = 0.000646515, Final residual = 5.01364e-06, No Iterations 1
Solving ODE 
startValue 1(0.203926)
startTime 0.019
endTime 0.02
nSteps = 100
tolerance = 0.0001
solution = 0.201897                0.818731                      20
GAMG:  Solving for p, Initial residual = 0.000638465, Final residual = 8.60102e-07, No Iterations 3
time step continuity errors : sum local = 2.3667e-11, global = -1.94309e-12, cumulative = -4.64532e-09
ExecutionTime = 0.151182 s  ClockTime = 0 s

Courant Number mean: 0.018858 max: 0.0487174
Time = 0.021s

smoothSolver:  Solving for Ux, Initial residual = 0.000678061, Final residual = 2.55497e-06, No Iterations 1
smoothSolver:  Solving for Uy, Initial residual = 0.000327953, Final residual = 4.04152e-06, No Iterations 1
Solving ODE 
startValue 1(0.201897)
startTime 0.02
endTime 0.021
nSteps = 100
tolerance = 0.0001
solution = 0.199888                0.810584                      21
GAMG:  Solving for p, Initial residual = 0.0178579, Final residual = 0.000809233, No Iterations 1
Solving ODE 
startValue 1(0.199888)
startTime 0.02
endTime 0.021
nSteps = 100
tolerance = 0.0001
solution = 0.197899                0.810584                      21
GAMG:  Solving for p, Initial residual = 0.00146129, Final residual = 5.35409e-05, No Iterations 2
Solving ODE 
startValue 1(0.197899)
startTime 0.02
endTime 0.021
nSteps = 100
tolerance = 0.0001
solution = 0.19593                0.810584                      21
GAMG:  Solving for p, Initial residual = 0.00068879, Final residual = 2.50466e-05, No Iterations 1
Solving ODE 
startValue 1(0.19593)
startTime 0.02
endTime 0.021
nSteps = 100
tolerance = 0.0001
solution = 0.19398                0.810584                      21
GAMG:  Solving for p, Initial residual = 0.000648049, Final residual = 1.38616e-05, No Iterations 1
time step continuity errors : sum local = 3.72934e-10, global = -2.78334e-11
Solving ODE 
startValue 1(0.19398)
startTime 0.02
endTime 0.021
nSteps = 100
tolerance = 0.0001
solution = 0.19205                0.810584                      21
GAMG:  Solving for p, Initial residual = 0.000683559, Final residual = 9.46012e-06, No Iterations 1
Solving ODE 
startValue 1(0.19205)
startTime 0.02
endTime 0.021
nSteps = 100
tolerance = 0.0001
solution = 0.190139                0.810584                      21
GAMG:  Solving for p, Initial residual = 0.000619707, Final residual = 6.58196e-06, No Iterations 1
Solving ODE 
startValue 1(0.190139)
startTime 0.02
endTime 0.021
nSteps = 100
tolerance = 0.0001
solution = 0.188247                0.810584                      21
GAMG:  Solving for p, Initial residual = 0.00061076, Final residual = 5.01302e-06, No Iterations 1
Solving ODE 
startValue 1(0.188247)
startTime 0.02
endTime 0.021
nSteps = 100
tolerance = 0.0001
solution = 0.186374                0.810584                      21
GAMG:  Solving for p, Initial residual = 0.000603138, Final residual = 8.47282e-07, No Iterations 3
time step continuity errors : sum local = 2.27929e-11, global = -2.56789e-12, cumulative = -4.64789e-09
ExecutionTime = 0.154971 s  ClockTime = 0 s

Courant Number mean: 0.0188581 max: 0.0487123
Time = 0.022s

smoothSolver:  Solving for Ux, Initial residual = 0.000664634, Final residual = 2.56882e-06, No Iterations 1
smoothSolver:  Solving for Uy, Initial residual = 0.000327686, Final residual = 4.03856e-06, No Iterations 1
Solving ODE 
startValue 1(0.186374)
startTime 0.021
endTime 0.022
nSteps = 100
tolerance = 0.0001
solution = 0.18452                0.802519                      22
GAMG:  Solving for p, Initial residual = 0.0171606, Final residual = 0.000757479, No Iterations 1
Solving ODE 
startValue 1(0.18452)
startTime 0.021
endTime 0.022
nSteps = 100
tolerance = 0.0001
solution = 0.182684                0.802519                      22
GAMG:  Solving for p, Initial residual = 0.00137311, Final residual = 5.04889e-05, No Iterations 2
Solving ODE 
startValue 1(0.182684)
startTime 0.021
endTime 0.022
nSteps = 100
tolerance = 0.0001
solution = 0.180866                0.802519                      22
GAMG:  Solving for p, Initial residual = 0.000649489, Final residual = 2.35312e-05, No Iterations 1
Solving ODE 
startValue 1(0.180866)
startTime 0.021
endTime 0.022
nSteps = 100
tolerance = 0.0001
solution = 0.179066                0.802519                      22
GAMG:  Solving for p, Initial residual = 0.000610985, Final residual = 1.31361e-05, No Iterations 1
time step continuity errors : sum local = 3.46001e-10, global = -2.48528e-11
Solving ODE 
startValue 1(0.179066)
startTime 0.021
endTime 0.022
nSteps = 100
tolerance = 0.0001
solution = 0.177284                0.802519                      22
GAMG:  Solving for p, Initial residual = 0.000645866, Final residual = 9.22779e-06, No Iterations 1
Solving ODE 
startValue 1(0.177284)
startTime 0.021
endTime 0.022
nSteps = 100
tolerance = 0.0001
solution = 0.17552                0.802519                      22
GAMG:  Solving for p, Initial residual = 0.000584624, Final residual = 6.53525e-06, No Iterations 1
Solving ODE 
startValue 1(0.17552)
startTime 0.021
endTime 0.022
nSteps = 100
tolerance = 0.0001
solution = 0.173774                0.802519                      22
GAMG:  Solving for p, Initial residual = 0.000576218, Final residual = 5.01275e-06, No Iterations 1
Solving ODE 
startValue 1(0.173774)
startTime 0.021
endTime 0.022
nSteps = 100
tolerance = 0.0001
solution = 0.172045                0.802519                      22
GAMG:  Solving for p, Initial residual = 0.000568979, Final residual = 8.09892e-07, No Iterations 3
time step continuity errors : sum local = 2.13301e-11, global = -2.66572e-12, cumulative = -4.65056e-09
ExecutionTime = 0.158762 s  ClockTime = 0 s

Courant Number mean: 0.0188581 max: 0.0487072
Time = 0.023s

smoothSolver:  Solving for Ux, Initial residual = 0.000650782, Final residual = 2.57384e-06, No Iterations 1
smoothSolver:  Solving for Uy, Initial residual = 0.000327575, Final residual = 4.03684e-06, No Iterations 1
Solving ODE 
startValue 1(0.172045)
startTime 0.022
endTime 0.023
nSteps = 100
tolerance = 0.0001
solution = 0.170333                0.794534                      23
GAMG:  Solving for p, Initial residual = 0.0165052, Final residual = 0.000712272, No Iterations 1
Solving ODE 
startValue 1(0.170333)
startTime 0.022
endTime 0.023
nSteps = 100
tolerance = 0.0001
solution = 0.168638                0.794534                      23
GAMG:  Solving for p, Initial residual = 0.0012928, Final residual = 4.78513e-05, No Iterations 2
Solving ODE 
startValue 1(0.168638)
startTime 0.022
endTime 0.023
nSteps = 100
tolerance = 0.0001
solution = 0.16696                0.794534                      23
GAMG:  Solving for p, Initial residual = 0.000612041, Final residual = 2.2318e-05, No Iterations 1
Solving ODE 
startValue 1(0.16696)
startTime 0.022
endTime 0.023
nSteps = 100
tolerance = 0.0001
solution = 0.165299                0.794534                      23
GAMG:  Solving for p, Initial residual = 0.000575601, Final residual = 1.26529e-05, No Iterations 1
time step continuity errors : sum local = 3.2667e-10, global = -2.23381e-11
Solving ODE 
startValue 1(0.165299)
startTime 0.022
endTime 0.023
nSteps = 100
tolerance = 0.0001
solution = 0.163654                0.794534                      23
GAMG:  Solving for p, Initial residual = 0.000609871, Final residual = 9.0508e-06, No Iterations 1
Solving ODE 
startValue 1(0.163654)
startTime 0.022
endTime 0.023
nSteps = 100
tolerance = 0.0001
solution = 0.162026                0.794534                      23
GAMG:  Solving for p, Initial residual = 0.000550968, Final residual = 6.47709e-06, No Iterations 1
Solving ODE 
startValue 1(0.162026)
startTime 0.022
endTime 0.023
nSteps = 100
tolerance = 0.0001
solution = 0.160414                0.794534                      23
GAMG:  Solving for p, Initial residual = 0.000542998, Final residual = 4.99865e-06, No Iterations 1
Solving ODE 
startValue 1(0.160414)
startTime 0.022
endTime 0.023
nSteps = 100
tolerance = 0.0001
solution = 0.158817                0.794534                      23
GAMG:  Solving for p, Initial residual = 0.000536127, Final residual = 7.70052e-07, No Iterations 3
time step continuity errors : sum local = 1.98791e-11, global = -2.49708e-12, cumulative = -4.65305e-09
ExecutionTime = 0.16259 s  ClockTime = 0 s

Courant Number mean: 0.0188582 max: 0.0487021
Time = 0.024s

smoothSolver:  Solving for Ux, Initial residual = 0.000636768, Final residual = 2.56687e-06, No Iterations 1
smoothSolver:  Solving for Uy, Initial residual = 0.00032757, Final residual = 4.03554e-06, No Iterations 1
Solving ODE 
startValue 1(0.158817)
startTime 0.023
endTime 0.024
nSteps = 100
tolerance = 0.0001
solution = 0.157237                0.786628                      24
GAMG:  Solving for p, Initial residual = 0.0158869, Final residual = 0.000672478, No Iterations 1
Solving ODE 
startValue 1(0.157237)
startTime 0.023
endTime 0.024
nSteps = 100
tolerance = 0.0001
solution = 0.155673                0.786628                      24
GAMG:  Solving for p, Initial residual = 0.00121928, Final residual = 4.55567e-05, No Iterations 2
Solving ODE 
startValue 1(0.155673)
startTime 0.023
endTime 0.024
nSteps = 100
tolerance = 0.0001
solution = 0.154124                0.786628                      24
GAMG:  Solving for p, Initial residual = 0.000576401, Final residual = 2.13641e-05, No Iterations 1
Solving ODE 
startValue 1(0.154124)
startTime 0.023
endTime 0.024
nSteps = 100
tolerance = 0.0001
solution = 0.15259                0.786628                      24
GAMG:  Solving for p, Initial residual = 0.000541885, Final residual = 1.23233e-05, No Iterations 1
time step continuity errors : sum local = 3.12226e-10, global = -2.03478e-11
Solving ODE 
startValue 1(0.15259)
startTime 0.023
endTime 0.024
nSteps = 100
tolerance = 0.0001
solution = 0.151072                0.786628                      24
GAMG:  Solving for p, Initial residual = 0.000575336, Final residual = 8.90526e-06, No Iterations 1
Solving ODE 
startValue 1(0.151072)
startTime 0.023
endTime 0.024
nSteps = 100
tolerance = 0.0001
solution = 0.149569                0.786628                      24
GAMG:  Solving for p, Initial residual = 0.000518694, Final residual = 6.4149e-06, No Iterations 1
Solving ODE 
startValue 1(0.149569)
startTime 0.023
endTime 0.024
nSteps = 100
tolerance = 0.0001
solution = 0.14808                0.786628                      24
GAMG:  Solving for p, Initial residual = 0.000511112, Final residual = 4.97361e-06, No Iterations 1
Solving ODE 
startValue 1(0.14808)
startTime 0.023
endTime 0.024
nSteps = 100
tolerance = 0.0001
solution = 0.146607                0.786628                      24
GAMG:  Solving for p, Initial residual = 0.000504595, Final residual = 7.36246e-07, No Iterations 3
time step continuity errors : sum local = 1.86518e-11, global = -2.25875e-12, cumulative = -4.65531e-09
ExecutionTime = 0.166519 s  ClockTime = 0 s

Courant Number mean: 0.0188582 max: 0.0486968
Time = 0.025s

smoothSolver:  Solving for Ux, Initial residual = 0.000622748, Final residual = 2.55093e-06, No Iterations 1
smoothSolver:  Solving for Uy, Initial residual = 0.000327607, Final residual = 4.03403e-06, No Iterations 1
Solving ODE 
startValue 1(0.146607)
startTime 0.024
endTime 0.025
nSteps = 100
tolerance = 0.0001
solution = 0.145148                0.778801                      25
GAMG:  Solving for p, Initial residual = 0.0153004, Final residual = 0.000637407, No Iterations 1
Solving ODE 
startValue 1(0.145148)
startTime 0.024
endTime 0.025
nSteps = 100
tolerance = 0.0001
solution = 0.143704                0.778801                      25
GAMG:  Solving for p, Initial residual = 0.0011519, Final residual = 4.34903e-05, No Iterations 2
Solving ODE 
startValue 1(0.143704)
startTime 0.024
endTime 0.025
nSteps = 100
tolerance = 0.0001
solution = 0.142274                0.778801                      25
GAMG:  Solving for p, Initial residual = 0.000542523, Final residual = 2.06219e-05, No Iterations 1
Solving ODE 
startValue 1(0.142274)
startTime 0.024
endTime 0.025
nSteps = 100
tolerance = 0.0001
solution = 0.140858                0.778801                      25
GAMG:  Solving for p, Initial residual = 0.000509793, Final residual = 1.20656e-05, No Iterations 1
time step continuity errors : sum local = 3.00323e-10, global = -1.88571e-11
Solving ODE 
startValue 1(0.140858)
startTime 0.024
endTime 0.025
nSteps = 100
tolerance = 0.0001
solution = 0.139457                0.778801                      25
GAMG:  Solving for p, Initial residual = 0.0005422, Final residual = 8.77101e-06, No Iterations 1
Solving ODE 
startValue 1(0.139457)
startTime 0.024
endTime 0.025
nSteps = 100
tolerance = 0.0001
solution = 0.138069                0.778801                      25
GAMG:  Solving for p, Initial residual = 0.000487807, Final residual = 6.34708e-06, No Iterations 1
Solving ODE 
startValue 1(0.138069)
startTime 0.024
endTime 0.025
nSteps = 100
tolerance = 0.0001
solution = 0.136695                0.778801                      25
GAMG:  Solving for p, Initial residual = 0.000480586, Final residual = 4.9401e-06, No Iterations 1
Solving ODE 
startValue 1(0.136695)
startTime 0.024
endTime 0.025
nSteps = 100
tolerance = 0.0001
solution = 0.135335                0.778801                      25
GAMG:  Solving for p, Initial residual = 0.000474409, Final residual = 7.06295e-07, No Iterations 3
time step continuity errors : sum local = 1.75786e-11, global = -1.99722e-12, cumulative = -4.65731e-09
ExecutionTime = 0.170344 s  ClockTime = 0 s

Courant Number mean: 0.0188583 max: 0.0486915
Time = 0.026s

smoothSolver:  Solving for Ux, Initial residual = 0.000608859, Final residual = 2.52845e-06, No Iterations 1
smoothSolver:  Solving for Uy, Initial residual = 0.000327698, Final residual = 4.0323e-06, No Iterations 1
Solving ODE 
startValue 1(0.135335)
startTime 0.025
endTime 0.026
nSteps = 100
tolerance = 0.0001
solution = 0.133989                0.771052                      26
GAMG:  Solving for p, Initial residual = 0.0147422, Final residual = 0.000606358, No Iterations 1
Solving ODE 
startValue 1(0.133989)
startTime 0.025
endTime 0.026
nSteps = 100
tolerance = 0.0001
solution = 0.132655                0.771052                      26
GAMG:  Solving for p, Initial residual = 0.00108997, Final residual = 4.16515e-05, No Iterations 2
Solving ODE 
startValue 1(0.132655)
startTime 0.025
endTime 0.026
nSteps = 100
tolerance = 0.0001
solution = 0.131336                0.771052                      26
GAMG:  Solving for p, Initial residual = 0.000510348, Final residual = 2.0035e-05, No Iterations 1
Solving ODE 
startValue 1(0.131336)
startTime 0.025
endTime 0.026
nSteps = 100
tolerance = 0.0001
solution = 0.130029                0.771052                      26
GAMG:  Solving for p, Initial residual = 0.000479313, Final residual = 1.18206e-05, No Iterations 1
time step continuity errors : sum local = 2.89328e-10, global = -1.77369e-11
Solving ODE 
startValue 1(0.130029)
startTime 0.025
endTime 0.026
nSteps = 100
tolerance = 0.0001
solution = 0.128735                0.771052                      26
GAMG:  Solving for p, Initial residual = 0.000510522, Final residual = 8.62536e-06, No Iterations 1
Solving ODE 
startValue 1(0.128735)
startTime 0.025
endTime 0.026
nSteps = 100
tolerance = 0.0001
solution = 0.127454                0.771052                      26
GAMG:  Solving for p, Initial residual = 0.000458338, Final residual = 6.26011e-06, No Iterations 1
Solving ODE 
startValue 1(0.127454)
startTime 0.025
endTime 0.026
nSteps = 100
tolerance = 0.0001
solution = 0.126186                0.771052                      26
GAMG:  Solving for p, Initial residual = 0.000451457, Final residual = 4.89172e-06, No Iterations 1
Solving ODE 
startValue 1(0.126186)
startTime 0.025
endTime 0.026
nSteps = 100
tolerance = 0.0001
solution = 0.12493                0.771052                      26
GAMG:  Solving for p, Initial residual = 0.000445608, Final residual = 6.78871e-07, No Iterations 3
time step continuity errors : sum local = 1.66149e-11, global = -1.73249e-12, cumulative = -4.65904e-09
ExecutionTime = 0.174298 s  ClockTime = 0 s

Courant Number mean: 0.0188583 max: 0.0486861
Time = 0.027s

smoothSolver:  Solving for Ux, Initial residual = 0.000595231, Final residual = 2.50115e-06, No Iterations 1
smoothSolver:  Solving for Uy, Initial residual = 0.000327794, Final residual = 4.03087e-06, No Iterations 1
Solving ODE 
startValue 1(0.12493)
startTime 0.026
endTime 0.027
nSteps = 100
tolerance = 0.0001
solution = 0.123687                0.763379                      27
GAMG:  Solving for p, Initial residual = 0.0142128, Final residual = 0.000578661, No Iterations 1
Solving ODE 
startValue 1(0.123687)
startTime 0.026
endTime 0.027
nSteps = 100
tolerance = 0.0001
solution = 0.122456                0.763379                      27
GAMG:  Solving for p, Initial residual = 0.00103276, Final residual = 4.00186e-05, No Iterations 2
Solving ODE 
startValue 1(0.122456)
startTime 0.026
endTime 0.027
nSteps = 100
tolerance = 0.0001
solution = 0.121238                0.763379                      27
GAMG:  Solving for p, Initial residual = 0.000479835, Final residual = 1.95209e-05, No Iterations 1
Solving ODE 
startValue 1(0.121238)
startTime 0.026
endTime 0.027
nSteps = 100
tolerance = 0.0001
solution = 0.120032                0.763379                      27
GAMG:  Solving for p, Initial residual = 0.000450319, Final residual = 1.1583e-05, No Iterations 1
time step continuity errors : sum local = 2.79052e-10, global = -1.68835e-11
Solving ODE 
startValue 1(0.120032)
startTime 0.026
endTime 0.027
nSteps = 100
tolerance = 0.0001
solution = 0.118837                0.763379                      27
GAMG:  Solving for p, Initial residual = 0.000480297, Final residual = 8.4675e-06, No Iterations 1
Solving ODE 
startValue 1(0.118837)
startTime 0.026
endTime 0.027
nSteps = 100
tolerance = 0.0001
solution = 0.117655                0.763379                      27
GAMG:  Solving for p, Initial residual = 0.00043026, Final residual = 6.15875e-06, No Iterations 1
Solving ODE 
startValue 1(0.117655)
startTime 0.026
endTime 0.027
nSteps = 100
tolerance = 0.0001
solution = 0.116484                0.763379                      27
GAMG:  Solving for p, Initial residual = 0.000423708, Final residual = 4.82813e-06, No Iterations 1
Solving ODE 
startValue 1(0.116484)
startTime 0.026
endTime 0.027
nSteps = 100
tolerance = 0.0001
solution = 0.115325                0.763379                      27
GAMG:  Solving for p, Initial residual = 0.000418172, Final residual = 6.55626e-07, No Iterations 3
time step continuity errors : sum local = 1.57936e-11, global = -1.49158e-12, cumulative = -4.66053e-09
ExecutionTime = 0.17812 s  ClockTime = 0 s

Courant Number mean: 0.0188584 max: 0.0486835
Time = 0.028s

smoothSolver:  Solving for Ux, Initial residual = 0.000581869, Final residual = 2.47058e-06, No Iterations 1
smoothSolver:  Solving for Uy, Initial residual = 0.000328024, Final residual = 4.03035e-06, No Iterations 1
Solving ODE 
startValue 1(0.115325)
startTime 0.027
endTime 0.028
nSteps = 100
tolerance = 0.0001
solution = 0.114178                0.755784                      28
GAMG:  Solving for p, Initial residual = 0.013713, Final residual = 0.000554281, No Iterations 1
Solving ODE 
startValue 1(0.114178)
startTime 0.027
endTime 0.028
nSteps = 100
tolerance = 0.0001
solution = 0.113042                0.755784                      28
GAMG:  Solving for p, Initial residual = 0.000980339, Final residual = 3.85519e-05, No Iterations 2
Solving ODE 
startValue 1(0.113042)
startTime 0.027
endTime 0.028
nSteps = 100
tolerance = 0.0001
solution = 0.111917                0.755784                      28
GAMG:  Solving for p, Initial residual = 0.000450916, Final residual = 1.90518e-05, No Iterations 1
Solving ODE 
startValue 1(0.111917)
startTime 0.027
endTime 0.028
nSteps = 100
tolerance = 0.0001
solution = 0.110803                0.755784                      28
GAMG:  Solving for p, Initial residual = 0.000422777, Final residual = 1.13552e-05, No Iterations 1
time step continuity errors : sum local = 2.69504e-10, global = -1.62314e-11
Solving ODE 
startValue 1(0.110803)
startTime 0.027
endTime 0.028
nSteps = 100
tolerance = 0.0001
solution = 0.109701                0.755784                      28
GAMG:  Solving for p, Initial residual = 0.000451537, Final residual = 8.31492e-06, No Iterations 1
Solving ODE 
startValue 1(0.109701)
startTime 0.027
endTime 0.028
nSteps = 100
tolerance = 0.0001
solution = 0.108609                0.755784                      28
GAMG:  Solving for p, Initial residual = 0.000403562, Final residual = 6.05888e-06, No Iterations 1
Solving ODE 
startValue 1(0.108609)
startTime 0.027
endTime 0.028
nSteps = 100
tolerance = 0.0001
solution = 0.107528                0.755784                      28
GAMG:  Solving for p, Initial residual = 0.000397322, Final residual = 4.76498e-06, No Iterations 1
Solving ODE 
startValue 1(0.107528)
startTime 0.027
endTime 0.028
nSteps = 100
tolerance = 0.0001
solution = 0.106459                0.755784                      28
GAMG:  Solving for p, Initial residual = 0.000392086, Final residual = 6.38604e-07, No Iterations 3
time step continuity errors : sum local = 1.51552e-11, global = -1.28649e-12, cumulative = -4.66182e-09
ExecutionTime = 0.181923 s  ClockTime = 0 s

Courant Number mean: 0.0188585 max: 0.0486812
Time = 0.029s

smoothSolver:  Solving for Ux, Initial residual = 0.000568829, Final residual = 2.43768e-06, No Iterations 1
smoothSolver:  Solving for Uy, Initial residual = 0.000328348, Final residual = 4.02942e-06, No Iterations 1
Solving ODE 
startValue 1(0.106459)
startTime 0.028
endTime 0.029
nSteps = 100
tolerance = 0.0001
solution = 0.105399                0.748264                      29
GAMG:  Solving for p, Initial residual = 0.0132352, Final residual = 0.000532223, No Iterations 1
Solving ODE 
startValue 1(0.105399)
startTime 0.028
endTime 0.029
nSteps = 100
tolerance = 0.0001
solution = 0.10435                0.748264                      29
GAMG:  Solving for p, Initial residual = 0.000931571, Final residual = 3.72977e-05, No Iterations 2
Solving ODE 
startValue 1(0.10435)
startTime 0.028
endTime 0.029
nSteps = 100
tolerance = 0.0001
solution = 0.103312                0.748264                      29
GAMG:  Solving for p, Initial residual = 0.000423609, Final residual = 1.86373e-05, No Iterations 1
Solving ODE 
startValue 1(0.103312)
startTime 0.028
endTime 0.029
nSteps = 100
tolerance = 0.0001
solution = 0.102284                0.748264                      29
GAMG:  Solving for p, Initial residual = 0.000396662, Final residual = 1.11388e-05, No Iterations 1
time step continuity errors : sum local = 2.60674e-10, global = -1.53161e-11
Solving ODE 
startValue 1(0.102284)
startTime 0.028
endTime 0.029
nSteps = 100
tolerance = 0.0001
solution = 0.101266                0.748264                      29
GAMG:  Solving for p, Initial residual = 0.000424177, Final residual = 8.15813e-06, No Iterations 1
Solving ODE 
startValue 1(0.101266)
startTime 0.028
endTime 0.029
nSteps = 100
tolerance = 0.0001
solution = 0.100259                0.748264                      29
GAMG:  Solving for p, Initial residual = 0.000378209, Final residual = 5.94016e-06, No Iterations 1
Solving ODE 
startValue 1(0.100259)
startTime 0.028
endTime 0.029
nSteps = 100
tolerance = 0.0001
solution = 0.0992613                0.748264                      29
GAMG:  Solving for p, Initial residual = 0.000372253, Final residual = 4.67075e-06, No Iterations 1
Solving ODE 
startValue 1(0.0992613)
startTime 0.028
endTime 0.029
nSteps = 100
tolerance = 0.0001
solution = 0.0982736                0.748264                      29
GAMG:  Solving for p, Initial residual = 0.00036729, Final residual = 6.24998e-07, No Iterations 3
time step continuity errors : sum local = 1.46251e-11, global = -1.24151e-12, cumulative = -4.66306e-09
ExecutionTime = 0.185833 s  ClockTime = 0 s

Courant Number mean: 0.0188585 max: 0.0486787
Time = 0.03s

smoothSolver:  Solving for Ux, Initial residual = 0.000556171, Final residual = 2.40296e-06, No Iterations 1
smoothSolver:  Solving for Uy, Initial residual = 0.000328631, Final residual = 4.02827e-06, No Iterations 1
Solving ODE 
startValue 1(0.0982736)
startTime 0.029
endTime 0.03
nSteps = 100
tolerance = 0.0001
solution = 0.0972957                0.740818                      30
GAMG:  Solving for p, Initial residual = 0.0127767, Final residual = 0.000512267, No Iterations 1
Solving ODE 
startValue 1(0.0972957)
startTime 0.029
endTime 0.03
nSteps = 100
tolerance = 0.0001
solution = 0.0963276                0.740818                      30
GAMG:  Solving for p, Initial residual = 0.000886236, Final residual = 3.61172e-05, No Iterations 2
Solving ODE 
startValue 1(0.0963276)
startTime 0.029
endTime 0.03
nSteps = 100
tolerance = 0.0001
solution = 0.0953692                0.740818                      30
GAMG:  Solving for p, Initial residual = 0.000397745, Final residual = 1.82297e-05, No Iterations 1
Solving ODE 
startValue 1(0.0953692)
startTime 0.029
endTime 0.03
nSteps = 100
tolerance = 0.0001
solution = 0.0944202                0.740818                      30
GAMG:  Solving for p, Initial residual = 0.00037191, Final residual = 1.09364e-05, No Iterations 1
time step continuity errors : sum local = 2.52563e-10, global = -1.50667e-11
Solving ODE 
startValue 1(0.0944202)
startTime 0.029
endTime 0.03
nSteps = 100
tolerance = 0.0001
solution = 0.0934807                0.740818                      30
GAMG:  Solving for p, Initial residual = 0.000398187, Final residual = 8.01372e-06, No Iterations 1
Solving ODE 
startValue 1(0.0934807)
startTime 0.029
endTime 0.03
nSteps = 100
tolerance = 0.0001
solution = 0.0925506                0.740818                      30
GAMG:  Solving for p, Initial residual = 0.000354195, Final residual = 5.85062e-06, No Iterations 1
Solving ODE 
startValue 1(0.0925506)
startTime 0.029
endTime 0.03
nSteps = 100
tolerance = 0.0001
solution = 0.0916297                0.740818                      30
GAMG:  Solving for p, Initial residual = 0.000348529, Final residual = 4.61191e-06, No Iterations 1
Solving ODE 
startValue 1(0.0916297)
startTime 0.029
endTime 0.03
nSteps = 100
tolerance = 0.0001
solution = 0.090718                0.740818                      30
GAMG:  Solving for p, Initial residual = 0.000343833, Final residual = 6.12382e-07, No Iterations 3
[...]
ExecutionTime = 0.431336 s  ClockTime = 1 s

Courant Number mean: 0.0188631 max: 0.0484616
Time = 0.085s

smoothSolver:  Solving for Ux, Initial residual = 0.000329927, Final residual = 1.88617e-06, No Iterations 1
smoothSolver:  Solving for Uy, Initial residual = 0.00033936, Final residual = 3.97053e-06, No Iterations 1
Solving ODE 
startValue 1(0.00120654)
startTime 0.084
endTime 0.085
nSteps = 100
tolerance = 0.0001
solution = 0.00119453                0.427415                      85
GAMG:  Solving for p, Initial residual = 0.0037711, Final residual = 0.000237719, No Iterations 1
Solving ODE 
startValue 1(0.00119453)
startTime 0.084
endTime 0.085
nSteps = 100
tolerance = 0.0001
solution = 0.00118265                0.427415                      85
GAMG:  Solving for p, Initial residual = 0.00024678, Final residual = 1.66229e-05, No Iterations 2
Solving ODE 
startValue 1(0.00118265)
startTime 0.084
endTime 0.085
nSteps = 100
tolerance = 0.0001
solution = 0.00117088                0.427415                      85
GAMG:  Solving for p, Initial residual = 2.53724e-05, Final residual = 2.27117e-06, No Iterations 2
Solving ODE 
startValue 1(0.00117088)
startTime 0.084
endTime 0.085
nSteps = 100
tolerance = 0.0001
solution = 0.00115923                0.427415                      85
GAMG:  Solving for p, Initial residual = 8.8133e-06, Final residual = 5.75979e-07, No Iterations 2
time step continuity errors : sum local = 1.09511e-11, global = -9.61195e-13
Solving ODE 
startValue 1(0.00115923)
startTime 0.084
endTime 0.085
nSteps = 100
tolerance = 0.0001
solution = 0.00114769                0.427415                      85
GAMG:  Solving for p, Initial residual = 1.3855e-05, Final residual = 6.65038e-07, No Iterations 1
Solving ODE 
startValue 1(0.00114769)
startTime 0.084
endTime 0.085
nSteps = 100
tolerance = 0.0001
solution = 0.00113627                0.427415                      85
GAMG:  Solving for p, Initial residual = 5.90698e-06, Final residual = 3.47993e-07, No Iterations 1
Solving ODE 
startValue 1(0.00113627)
startTime 0.084
endTime 0.085
nSteps = 100
tolerance = 0.0001
solution = 0.00112497                0.427415                      85
GAMG:  Solving for p, Initial residual = 5.48831e-06, Final residual = 2.68883e-07, No Iterations 1
Solving ODE 
startValue 1(0.00112497)
startTime 0.084
endTime 0.085
nSteps = 100
tolerance = 0.0001
solution = 0.00111378                0.427415                      85
GAMG:  Solving for p, Initial residual = 5.34555e-06, Final residual = 2.23548e-07, No Iterations 1
time step continuity errors : sum local = 4.25024e-12, global = -6.93513e-13, cumulative = -4.73688e-09
ExecutionTime = 0.435158 s  ClockTime = 1 s

Courant Number mean: 0.0188632 max: 0.0484569
Time = 0.086s

smoothSolver:  Solving for Ux, Initial residual = 0.000328768, Final residual = 1.88695e-06, No Iterations 1
smoothSolver:  Solving for Uy, Initial residual = 0.000339507, Final residual = 3.96909e-06, No Iterations 1
Solving ODE 
startValue 1(0.00111378)
startTime 0.085
endTime 0.086
nSteps = 100
tolerance = 0.0001
solution = 0.00110269                0.423162                      86
GAMG:  Solving for p, Initial residual = 0.00367231, Final residual = 0.000230541, No Iterations 1
Solving ODE 
startValue 1(0.00110269)
startTime 0.085
endTime 0.086
nSteps = 100
tolerance = 0.0001
solution = 0.00109172                0.423162                      86
GAMG:  Solving for p, Initial residual = 0.000239822, Final residual = 1.71256e-05, No Iterations 2
Solving ODE 
startValue 1(0.00109172)
startTime 0.085
endTime 0.086
nSteps = 100
tolerance = 0.0001
solution = 0.00108086                0.423162                      86
GAMG:  Solving for p, Initial residual = 2.54306e-05, Final residual = 1.13407e-06, No Iterations 3
Solving ODE 
startValue 1(0.00108086)
startTime 0.085
endTime 0.086
nSteps = 100
tolerance = 0.0001
solution = 0.0010701                0.423162                      86
GAMG:  Solving for p, Initial residual = 7.58563e-06, Final residual = 3.69829e-07, No Iterations 2
time step continuity errors : sum local = 7.03075e-12, global = -1.10105e-12
Solving ODE 
startValue 1(0.0010701)
startTime 0.085
endTime 0.086
nSteps = 100
tolerance = 0.0001
solution = 0.00105946                0.423162                      86
GAMG:  Solving for p, Initial residual = 1.28628e-05, Final residual = 5.89824e-07, No Iterations 1
Solving ODE 
startValue 1(0.00105946)
startTime 0.085
endTime 0.086
nSteps = 100
tolerance = 0.0001
solution = 0.00104891                0.423162                      86
GAMG:  Solving for p, Initial residual = 5.40956e-06, Final residual = 2.57561e-07, No Iterations 1
Solving ODE 
startValue 1(0.00104891)
startTime 0.085
endTime 0.086
nSteps = 100
tolerance = 0.0001
solution = 0.00103848                0.423162                      86
GAMG:  Solving for p, Initial residual = 4.99979e-06, Final residual = 1.79011e-07, No Iterations 1
Solving ODE 
startValue 1(0.00103848)
startTime 0.085
endTime 0.086
nSteps = 100
tolerance = 0.0001
solution = 0.00102814                0.423162                      86
GAMG:  Solving for p, Initial residual = 4.8614e-06, Final residual = 1.38041e-07, No Iterations 1
time step continuity errors : sum local = 2.62421e-12, global = -3.84907e-13, cumulative = -4.73726e-09
ExecutionTime = 0.4391 s  ClockTime = 1 s

Courant Number mean: 0.0188633 max: 0.0484523
Time = 0.087s

smoothSolver:  Solving for Ux, Initial residual = 0.000327484, Final residual = 1.88625e-06, No Iterations 1
smoothSolver:  Solving for Uy, Initial residual = 0.000339522, Final residual = 3.96638e-06, No Iterations 1
Solving ODE 
startValue 1(0.00102814)
startTime 0.086
endTime 0.087
nSteps = 100
tolerance = 0.0001
solution = 0.00101791                0.418952                      87
GAMG:  Solving for p, Initial residual = 0.00362394, Final residual = 0.000228296, No Iterations 1
Solving ODE 
startValue 1(0.00101791)
startTime 0.086
endTime 0.087
nSteps = 100
tolerance = 0.0001
solution = 0.00100779                0.418952                      87
GAMG:  Solving for p, Initial residual = 0.000237209, Final residual = 1.70731e-05, No Iterations 2
Solving ODE 
startValue 1(0.00100779)
startTime 0.086
endTime 0.087
nSteps = 100
tolerance = 0.0001
solution = 0.000997758                0.418952                      87
GAMG:  Solving for p, Initial residual = 2.49595e-05, Final residual = 1.17621e-06, No Iterations 3
Solving ODE 
startValue 1(0.000997758)
startTime 0.086
endTime 0.087
nSteps = 100
tolerance = 0.0001
solution = 0.00098783                0.418952                      87
GAMG:  Solving for p, Initial residual = 7.24527e-06, Final residual = 3.81866e-07, No Iterations 2
time step continuity errors : sum local = 7.25903e-12, global = -1.03404e-12
Solving ODE 
startValue 1(0.00098783)
startTime 0.086
endTime 0.087
nSteps = 100
tolerance = 0.0001
solution = 0.000978001                0.418952                      87
GAMG:  Solving for p, Initial residual = 1.23539e-05, Final residual = 6.1187e-07, No Iterations 1
Solving ODE 
startValue 1(0.000978001)
startTime 0.086
endTime 0.087
nSteps = 100
tolerance = 0.0001
solution = 0.00096827                0.418952                      87
GAMG:  Solving for p, Initial residual = 5.06544e-06, Final residual = 2.88682e-07, No Iterations 1
Solving ODE 
startValue 1(0.00096827)
startTime 0.086
endTime 0.087
nSteps = 100
tolerance = 0.0001
solution = 0.000958635                0.418952                      87
GAMG:  Solving for p, Initial residual = 4.66857e-06, Final residual = 2.1007e-07, No Iterations 1
Solving ODE 
startValue 1(0.000958635)
startTime 0.086
endTime 0.087
nSteps = 100
tolerance = 0.0001
solution = 0.000949097                0.418952                      87
GAMG:  Solving for p, Initial residual = 4.53468e-06, Final residual = 1.64789e-07, No Iterations 1
time step continuity errors : sum local = 3.13248e-12, global = -4.18184e-13, cumulative = -4.73768e-09
ExecutionTime = 0.443075 s  ClockTime = 1 s

Courant Number mean: 0.0188633 max: 0.0484476
Time = 0.088s

smoothSolver:  Solving for Ux, Initial residual = 0.000326214, Final residual = 1.88549e-06, No Iterations 1
smoothSolver:  Solving for Uy, Initial residual = 0.000339506, Final residual = 3.96362e-06, No Iterations 1
Solving ODE 
startValue 1(0.000949097)
startTime 0.087
endTime 0.088
nSteps = 100
tolerance = 0.0001
solution = 0.000939653                0.414783                      88
GAMG:  Solving for p, Initial residual = 0.00357641, Final residual = 0.00022608, No Iterations 1
Solving ODE 
startValue 1(0.000939653)
startTime 0.087
endTime 0.088
nSteps = 100
tolerance = 0.0001
solution = 0.000930303                0.414783                      88
GAMG:  Solving for p, Initial residual = 0.000234612, Final residual = 1.6971e-05, No Iterations 2
Solving ODE 
startValue 1(0.000930303)
startTime 0.087
endTime 0.088
nSteps = 100
tolerance = 0.0001
solution = 0.000921047                0.414783                      88
GAMG:  Solving for p, Initial residual = 2.44903e-05, Final residual = 1.15067e-06, No Iterations 3
Solving ODE 
startValue 1(0.000921047)
startTime 0.087
endTime 0.088
nSteps = 100
tolerance = 0.0001
solution = 0.000911882                0.414783                      88
GAMG:  Solving for p, Initial residual = 6.86483e-06, Final residual = 3.73386e-07, No Iterations 2
time step continuity errors : sum local = 7.0975e-12, global = -1.01304e-12
Solving ODE 
startValue 1(0.000911882)
startTime 0.087
endTime 0.088
nSteps = 100
tolerance = 0.0001
solution = 0.000902809                0.414783                      88
GAMG:  Solving for p, Initial residual = 1.18916e-05, Final residual = 6.01045e-07, No Iterations 1
Solving ODE 
startValue 1(0.000902809)
startTime 0.087
endTime 0.088
nSteps = 100
tolerance = 0.0001
solution = 0.000893825                0.414783                      88
GAMG:  Solving for p, Initial residual = 4.71644e-06, Final residual = 2.78212e-07, No Iterations 1
Solving ODE 
startValue 1(0.000893825)
startTime 0.087
endTime 0.088
nSteps = 100
tolerance = 0.0001
solution = 0.000884932                0.414783                      88
GAMG:  Solving for p, Initial residual = 4.32353e-06, Final residual = 2.00562e-07, No Iterations 1
Solving ODE 
startValue 1(0.000884932)
startTime 0.087
endTime 0.088
nSteps = 100
tolerance = 0.0001
solution = 0.000876127                0.414783                      88
GAMG:  Solving for p, Initial residual = 4.19381e-06, Final residual = 1.56705e-07, No Iterations 1
time step continuity errors : sum local = 2.97866e-12, global = -4.17272e-13, cumulative = -4.7381e-09
ExecutionTime = 0.446965 s  ClockTime = 1 s

Courant Number mean: 0.0188634 max: 0.048443
Time = 0.089s

smoothSolver:  Solving for Ux, Initial residual = 0.000324974, Final residual = 1.88476e-06, No Iterations 1
smoothSolver:  Solving for Uy, Initial residual = 0.000339495, Final residual = 3.96074e-06, No Iterations 1
Solving ODE 
startValue 1(0.000876127)
startTime 0.088
endTime 0.089
nSteps = 100
tolerance = 0.0001
solution = 0.000867409                0.410656                      89
GAMG:  Solving for p, Initial residual = 0.00352965, Final residual = 0.000223863, No Iterations 1
Solving ODE 
startValue 1(0.000867409)
startTime 0.088
endTime 0.089
nSteps = 100
tolerance = 0.0001
solution = 0.000858778                0.410656                      89
GAMG:  Solving for p, Initial residual = 0.000232039, Final residual = 1.6864e-05, No Iterations 2
Solving ODE 
startValue 1(0.000858778)
startTime 0.088
endTime 0.089
nSteps = 100
tolerance = 0.0001
solution = 0.000850233                0.410656                      89
GAMG:  Solving for p, Initial residual = 2.40323e-05, Final residual = 1.13211e-06, No Iterations 3
Solving ODE 
startValue 1(0.000850233)
startTime 0.088
endTime 0.089
nSteps = 100
tolerance = 0.0001
solution = 0.000841773                0.410656                      89
GAMG:  Solving for p, Initial residual = 6.51634e-06, Final residual = 3.6735e-07, No Iterations 2
time step continuity errors : sum local = 6.98267e-12, global = -9.70668e-13
Solving ODE 
startValue 1(0.000841773)
startTime 0.088
endTime 0.089
nSteps = 100
tolerance = 0.0001
solution = 0.000833397                0.410656                      89
GAMG:  Solving for p, Initial residual = 1.14603e-05, Final residual = 5.94662e-07, No Iterations 1
Solving ODE 
startValue 1(0.000833397)
startTime 0.088
endTime 0.089
nSteps = 100
tolerance = 0.0001
solution = 0.000825105                0.410656                      89
GAMG:  Solving for p, Initial residual = 4.39749e-06, Final residual = 2.72689e-07, No Iterations 1
Solving ODE 
startValue 1(0.000825105)
startTime 0.088
endTime 0.089
nSteps = 100
tolerance = 0.0001
solution = 0.000816895                0.410656                      89
GAMG:  Solving for p, Initial residual = 4.00894e-06, Final residual = 1.95901e-07, No Iterations 1
Solving ODE 
startValue 1(0.000816895)
startTime 0.088
endTime 0.089
nSteps = 100
tolerance = 0.0001
solution = 0.000808767                0.410656                      89
GAMG:  Solving for p, Initial residual = 3.8832e-06, Final residual = 1.52864e-07, No Iterations 1
time step continuity errors : sum local = 2.90562e-12, global = -4.1493e-13, cumulative = -4.73851e-09
ExecutionTime = 0.450823 s  ClockTime = 1 s

Courant Number mean: 0.0188635 max: 0.0484382
Time = 0.09s

smoothSolver:  Solving for Ux, Initial residual = 0.000323751, Final residual = 1.88391e-06, No Iterations 1
smoothSolver:  Solving for Uy, Initial residual = 0.000339484, Final residual = 3.95775e-06, No Iterations 1
Solving ODE 
startValue 1(0.000808767)
startTime 0.089
endTime 0.09
nSteps = 100
tolerance = 0.0001
solution = 0.000800719                 0.40657                      90
GAMG:  Solving for p, Initial residual = 0.00348368, Final residual = 0.000221712, No Iterations 1
Solving ODE 
startValue 1(0.000800719)
startTime 0.089
endTime 0.09
nSteps = 100
tolerance = 0.0001
solution = 0.000792752                 0.40657                      90
GAMG:  Solving for p, Initial residual = 0.000229558, Final residual = 1.67602e-05, No Iterations 2
Solving ODE 
startValue 1(0.000792752)
startTime 0.089
endTime 0.09
nSteps = 100
tolerance = 0.0001
solution = 0.000784864                 0.40657                      90
GAMG:  Solving for p, Initial residual = 2.3602e-05, Final residual = 1.11597e-06, No Iterations 3
Solving ODE 
startValue 1(0.000784864)
startTime 0.089
endTime 0.09
nSteps = 100
tolerance = 0.0001
solution = 0.000777055                 0.40657                      90
GAMG:  Solving for p, Initial residual = 6.19559e-06, Final residual = 3.62953e-07, No Iterations 2
time step continuity errors : sum local = 6.89917e-12, global = -9.31694e-13
Solving ODE 
startValue 1(0.000777055)
startTime 0.089
endTime 0.09
nSteps = 100
tolerance = 0.0001
solution = 0.000769323                 0.40657                      90
GAMG:  Solving for p, Initial residual = 1.10573e-05, Final residual = 5.89348e-07, No Iterations 1
Solving ODE 
startValue 1(0.000769323)
startTime 0.089
endTime 0.09
nSteps = 100
tolerance = 0.0001
solution = 0.000761668                 0.40657                      90
GAMG:  Solving for p, Initial residual = 4.1035e-06, Final residual = 2.68025e-07, No Iterations 1
Solving ODE 
startValue 1(0.000761668)
startTime 0.089
endTime 0.09
nSteps = 100
tolerance = 0.0001
solution = 0.000754089                 0.40657                      90
GAMG:  Solving for p, Initial residual = 3.71893e-06, Final residual = 1.91904e-07, No Iterations 1
Solving ODE 
startValue 1(0.000754089)
startTime 0.089
endTime 0.09
nSteps = 100
tolerance = 0.0001
solution = 0.000746586                 0.40657                      90
GAMG:  Solving for p, Initial residual = 3.59671e-06, Final residual = 1.49559e-07, No Iterations 1
time step continuity errors : sum local = 2.84284e-12, global = -4.13853e-13, cumulative = -4.73893e-09
ExecutionTime = 0.454795 s  ClockTime = 1 s

Courant Number mean: 0.0188636 max: 0.0484335
Time = 0.091s

smoothSolver:  Solving for Ux, Initial residual = 0.000322535, Final residual = 1.88323e-06, No Iterations 1
smoothSolver:  Solving for Uy, Initial residual = 0.000339487, Final residual = 3.95465e-06, No Iterations 1
Solving ODE 
startValue 1(0.000746586)
startTime 0.09
endTime 0.091
nSteps = 100
tolerance = 0.0001
solution = 0.000739157                0.402524                      91
GAMG:  Solving for p, Initial residual = 0.00343853, Final residual = 0.000219548, No Iterations 1
Solving ODE 
startValue 1(0.000739157)
startTime 0.09
endTime 0.091
nSteps = 100
tolerance = 0.0001
solution = 0.000731802                0.402524                      91
GAMG:  Solving for p, Initial residual = 0.000227085, Final residual = 1.66532e-05, No Iterations 2
Solving ODE 
startValue 1(0.000731802)
startTime 0.09
endTime 0.091
nSteps = 100
tolerance = 0.0001
solution = 0.000724521                0.402524                      91
GAMG:  Solving for p, Initial residual = 2.31922e-05, Final residual = 1.09969e-06, No Iterations 3
Solving ODE 
startValue 1(0.000724521)
startTime 0.09
endTime 0.091
nSteps = 100
tolerance = 0.0001
solution = 0.000717312                0.402524                      91
GAMG:  Solving for p, Initial residual = 5.89714e-06, Final residual = 3.5848e-07, No Iterations 2
time step continuity errors : sum local = 6.8144e-12, global = -8.89561e-13
Solving ODE 
startValue 1(0.000717312)
startTime 0.09
endTime 0.091
nSteps = 100
tolerance = 0.0001
solution = 0.000710174                0.402524                      91
GAMG:  Solving for p, Initial residual = 1.06814e-05, Final residual = 5.83787e-07, No Iterations 1
Solving ODE 
startValue 1(0.000710174)
startTime 0.09
endTime 0.091
nSteps = 100
tolerance = 0.0001
solution = 0.000703108                0.402524                      91
GAMG:  Solving for p, Initial residual = 3.83137e-06, Final residual = 2.63222e-07, No Iterations 1
Solving ODE 
startValue 1(0.000703108)
startTime 0.09
endTime 0.091
nSteps = 100
tolerance = 0.0001
solution = 0.000696112                0.402524                      91
GAMG:  Solving for p, Initial residual = 3.4506e-06, Final residual = 1.87678e-07, No Iterations 1
Solving ODE 
startValue 1(0.000696112)
startTime 0.09
endTime 0.091
nSteps = 100
tolerance = 0.0001
solution = 0.000689186                0.402524                      91
GAMG:  Solving for p, Initial residual = 3.33161e-06, Final residual = 1.46051e-07, No Iterations 1
time step continuity errors : sum local = 2.77625e-12, global = -4.12076e-13, cumulative = -4.73934e-09
ExecutionTime = 0.45882 s  ClockTime = 1 s

Courant Number mean: 0.0188637 max: 0.0484288
Time = 0.092s

smoothSolver:  Solving for Ux, Initial residual = 0.000321336, Final residual = 1.88251e-06, No Iterations 1
smoothSolver:  Solving for Uy, Initial residual = 0.000339486, Final residual = 3.9514e-06, No Iterations 1
Solving ODE 
startValue 1(0.000689186)
startTime 0.091
endTime 0.092
nSteps = 100
tolerance = 0.0001
solution = 0.000682328                0.398519                      92
GAMG:  Solving for p, Initial residual = 0.00339415, Final residual = 0.00021741, No Iterations 1
Solving ODE 
startValue 1(0.000682328)
startTime 0.091
endTime 0.092
nSteps = 100
tolerance = 0.0001
solution = 0.000675539                0.398519                      92
GAMG:  Solving for p, Initial residual = 0.000224657, Final residual = 1.65431e-05, No Iterations 2
Solving ODE 
startValue 1(0.000675539)
startTime 0.091
endTime 0.092
nSteps = 100
tolerance = 0.0001
solution = 0.000668817                0.398519                      92
GAMG:  Solving for p, Initial residual = 2.27997e-05, Final residual = 1.08346e-06, No Iterations 3
Solving ODE 
startValue 1(0.000668817)
startTime 0.091
endTime 0.092
nSteps = 100
tolerance = 0.0001
solution = 0.000662162                0.398519                      92
